
---------- Begin Simulation Statistics ----------
simSeconds                                   0.158367                       # Number of seconds simulated (Second)
simTicks                                 158367019000                       # Number of ticks simulated (Tick)
finalTick                                158367019000                       # Number of ticks from beginning of simulation (restored from checkpoints and never reset) (Tick)
simFreq                                  1000000000000                       # The number of ticks per simulated second ((Tick/Second))
hostSeconds                                    241.74                       # Real time elapsed on the host (Second)
hostTickRate                                655101769                       # The number of ticks simulated per host second (ticks/s) ((Tick/Second))
hostMemory                                     736108                       # Number of bytes of host memory used (Byte)
simInsts                                     25399392                       # Number of instructions simulated (Count)
simOps                                       43904756                       # Number of ops (including micro ops) simulated (Count)
hostInstRate                                   105067                       # Simulator instruction rate (inst/s) ((Count/Second))
hostOpRate                                     181616                       # Simulator op (including micro ops) rate (op/s) ((Count/Second))
system.clk_domain.clock                          1000                       # Clock period in ticks (Tick)
system.clk_domain.voltage_domain.voltage            1                       # Voltage in Volts (Volt)
system.cpu.numCycles                        158367019                       # Number of cpu cycles simulated (Cycle)
system.cpu.numWorkItemsStarted                      0                       # Number of work items this cpu started (Count)
system.cpu.numWorkItemsCompleted                    0                       # Number of work items this cpu completed (Count)
system.cpu.dcache.demandHits::cpu.data       16944120                       # number of demand (read+write) hits (Count)
system.cpu.dcache.demandHits::total          16944120                       # number of demand (read+write) hits (Count)
system.cpu.dcache.overallHits::cpu.data      16944120                       # number of overall hits (Count)
system.cpu.dcache.overallHits::total         16944120                       # number of overall hits (Count)
system.cpu.dcache.demandMisses::cpu.data       700900                       # number of demand (read+write) misses (Count)
system.cpu.dcache.demandMisses::total          700900                       # number of demand (read+write) misses (Count)
system.cpu.dcache.overallMisses::cpu.data       700900                       # number of overall misses (Count)
system.cpu.dcache.overallMisses::total         700900                       # number of overall misses (Count)
system.cpu.dcache.demandMissLatency::cpu.data  67880029000                       # number of demand (read+write) miss ticks (Tick)
system.cpu.dcache.demandMissLatency::total  67880029000                       # number of demand (read+write) miss ticks (Tick)
system.cpu.dcache.overallMissLatency::cpu.data  67880029000                       # number of overall miss ticks (Tick)
system.cpu.dcache.overallMissLatency::total  67880029000                       # number of overall miss ticks (Tick)
system.cpu.dcache.demandAccesses::cpu.data     17645020                       # number of demand (read+write) accesses (Count)
system.cpu.dcache.demandAccesses::total      17645020                       # number of demand (read+write) accesses (Count)
system.cpu.dcache.overallAccesses::cpu.data     17645020                       # number of overall (read+write) accesses (Count)
system.cpu.dcache.overallAccesses::total     17645020                       # number of overall (read+write) accesses (Count)
system.cpu.dcache.demandMissRate::cpu.data     0.039722                       # miss rate for demand accesses (Ratio)
system.cpu.dcache.demandMissRate::total      0.039722                       # miss rate for demand accesses (Ratio)
system.cpu.dcache.overallMissRate::cpu.data     0.039722                       # miss rate for overall accesses (Ratio)
system.cpu.dcache.overallMissRate::total     0.039722                       # miss rate for overall accesses (Ratio)
system.cpu.dcache.demandAvgMissLatency::cpu.data 96846.952490                       # average overall miss latency in ticks ((Tick/Count))
system.cpu.dcache.demandAvgMissLatency::total 96846.952490                       # average overall miss latency in ticks ((Tick/Count))
system.cpu.dcache.overallAvgMissLatency::cpu.data 96846.952490                       # average overall miss latency ((Tick/Count))
system.cpu.dcache.overallAvgMissLatency::total 96846.952490                       # average overall miss latency ((Tick/Count))
system.cpu.dcache.blockedCycles::no_mshrs            0                       # number of cycles access was blocked (Cycle)
system.cpu.dcache.blockedCycles::no_targets            0                       # number of cycles access was blocked (Cycle)
system.cpu.dcache.blockedCauses::no_mshrs            0                       # number of times access was blocked (Count)
system.cpu.dcache.blockedCauses::no_targets            0                       # number of times access was blocked (Count)
system.cpu.dcache.avgBlocked::no_mshrs            nan                       # average number of cycles each access was blocked ((Cycle/Count))
system.cpu.dcache.avgBlocked::no_targets          nan                       # average number of cycles each access was blocked ((Cycle/Count))
system.cpu.dcache.writebacks::writebacks       686977                       # number of writebacks (Count)
system.cpu.dcache.writebacks::total            686977                       # number of writebacks (Count)
system.cpu.dcache.demandMshrMisses::cpu.data       700900                       # number of demand (read+write) MSHR misses (Count)
system.cpu.dcache.demandMshrMisses::total       700900                       # number of demand (read+write) MSHR misses (Count)
system.cpu.dcache.overallMshrMisses::cpu.data       700900                       # number of overall MSHR misses (Count)
system.cpu.dcache.overallMshrMisses::total       700900                       # number of overall MSHR misses (Count)
system.cpu.dcache.demandMshrMissLatency::cpu.data  66478229000                       # number of demand (read+write) MSHR miss ticks (Tick)
system.cpu.dcache.demandMshrMissLatency::total  66478229000                       # number of demand (read+write) MSHR miss ticks (Tick)
system.cpu.dcache.overallMshrMissLatency::cpu.data  66478229000                       # number of overall MSHR miss ticks (Tick)
system.cpu.dcache.overallMshrMissLatency::total  66478229000                       # number of overall MSHR miss ticks (Tick)
system.cpu.dcache.demandMshrMissRate::cpu.data     0.039722                       # mshr miss ratio for demand accesses (Ratio)
system.cpu.dcache.demandMshrMissRate::total     0.039722                       # mshr miss ratio for demand accesses (Ratio)
system.cpu.dcache.overallMshrMissRate::cpu.data     0.039722                       # mshr miss ratio for overall accesses (Ratio)
system.cpu.dcache.overallMshrMissRate::total     0.039722                       # mshr miss ratio for overall accesses (Ratio)
system.cpu.dcache.demandAvgMshrMissLatency::cpu.data 94846.952490                       # average overall mshr miss latency ((Tick/Count))
system.cpu.dcache.demandAvgMshrMissLatency::total 94846.952490                       # average overall mshr miss latency ((Tick/Count))
system.cpu.dcache.overallAvgMshrMissLatency::cpu.data 94846.952490                       # average overall mshr miss latency ((Tick/Count))
system.cpu.dcache.overallAvgMshrMissLatency::total 94846.952490                       # average overall mshr miss latency ((Tick/Count))
system.cpu.dcache.replacements                 699876                       # number of replacements (Count)
system.cpu.dcache.LockedRMWReadReq.hits::cpu.data            6                       # number of LockedRMWReadReq hits (Count)
system.cpu.dcache.LockedRMWReadReq.hits::total            6                       # number of LockedRMWReadReq hits (Count)
system.cpu.dcache.LockedRMWReadReq.accesses::cpu.data            6                       # number of LockedRMWReadReq accesses(hits+misses) (Count)
system.cpu.dcache.LockedRMWReadReq.accesses::total            6                       # number of LockedRMWReadReq accesses(hits+misses) (Count)
system.cpu.dcache.LockedRMWReadReq.mshrMissLatency::cpu.data        12000                       # number of LockedRMWReadReq MSHR miss ticks (Tick)
system.cpu.dcache.LockedRMWReadReq.mshrMissLatency::total        12000                       # number of LockedRMWReadReq MSHR miss ticks (Tick)
system.cpu.dcache.LockedRMWReadReq.avgMshrMissLatency::cpu.data          inf                       # average LockedRMWReadReq mshr miss latency ((Tick/Count))
system.cpu.dcache.LockedRMWReadReq.avgMshrMissLatency::total          inf                       # average LockedRMWReadReq mshr miss latency ((Tick/Count))
system.cpu.dcache.LockedRMWWriteReq.hits::cpu.data            6                       # number of LockedRMWWriteReq hits (Count)
system.cpu.dcache.LockedRMWWriteReq.hits::total            6                       # number of LockedRMWWriteReq hits (Count)
system.cpu.dcache.LockedRMWWriteReq.accesses::cpu.data            6                       # number of LockedRMWWriteReq accesses(hits+misses) (Count)
system.cpu.dcache.LockedRMWWriteReq.accesses::total            6                       # number of LockedRMWWriteReq accesses(hits+misses) (Count)
system.cpu.dcache.ReadReq.hits::cpu.data     13214021                       # number of ReadReq hits (Count)
system.cpu.dcache.ReadReq.hits::total        13214021                       # number of ReadReq hits (Count)
system.cpu.dcache.ReadReq.misses::cpu.data        14839                       # number of ReadReq misses (Count)
system.cpu.dcache.ReadReq.misses::total         14839                       # number of ReadReq misses (Count)
system.cpu.dcache.ReadReq.missLatency::cpu.data   1252690000                       # number of ReadReq miss ticks (Tick)
system.cpu.dcache.ReadReq.missLatency::total   1252690000                       # number of ReadReq miss ticks (Tick)
system.cpu.dcache.ReadReq.accesses::cpu.data     13228860                       # number of ReadReq accesses(hits+misses) (Count)
system.cpu.dcache.ReadReq.accesses::total     13228860                       # number of ReadReq accesses(hits+misses) (Count)
system.cpu.dcache.ReadReq.missRate::cpu.data     0.001122                       # miss rate for ReadReq accesses (Ratio)
system.cpu.dcache.ReadReq.missRate::total     0.001122                       # miss rate for ReadReq accesses (Ratio)
system.cpu.dcache.ReadReq.avgMissLatency::cpu.data 84418.761372                       # average ReadReq miss latency ((Tick/Count))
system.cpu.dcache.ReadReq.avgMissLatency::total 84418.761372                       # average ReadReq miss latency ((Tick/Count))
system.cpu.dcache.ReadReq.mshrMisses::cpu.data        14839                       # number of ReadReq MSHR misses (Count)
system.cpu.dcache.ReadReq.mshrMisses::total        14839                       # number of ReadReq MSHR misses (Count)
system.cpu.dcache.ReadReq.mshrMissLatency::cpu.data   1223012000                       # number of ReadReq MSHR miss ticks (Tick)
system.cpu.dcache.ReadReq.mshrMissLatency::total   1223012000                       # number of ReadReq MSHR miss ticks (Tick)
system.cpu.dcache.ReadReq.mshrMissRate::cpu.data     0.001122                       # mshr miss rate for ReadReq accesses (Ratio)
system.cpu.dcache.ReadReq.mshrMissRate::total     0.001122                       # mshr miss rate for ReadReq accesses (Ratio)
system.cpu.dcache.ReadReq.avgMshrMissLatency::cpu.data 82418.761372                       # average ReadReq mshr miss latency ((Tick/Count))
system.cpu.dcache.ReadReq.avgMshrMissLatency::total 82418.761372                       # average ReadReq mshr miss latency ((Tick/Count))
system.cpu.dcache.WriteReq.hits::cpu.data      3730099                       # number of WriteReq hits (Count)
system.cpu.dcache.WriteReq.hits::total        3730099                       # number of WriteReq hits (Count)
system.cpu.dcache.WriteReq.misses::cpu.data       686061                       # number of WriteReq misses (Count)
system.cpu.dcache.WriteReq.misses::total       686061                       # number of WriteReq misses (Count)
system.cpu.dcache.WriteReq.missLatency::cpu.data  66627339000                       # number of WriteReq miss ticks (Tick)
system.cpu.dcache.WriteReq.missLatency::total  66627339000                       # number of WriteReq miss ticks (Tick)
system.cpu.dcache.WriteReq.accesses::cpu.data      4416160                       # number of WriteReq accesses(hits+misses) (Count)
system.cpu.dcache.WriteReq.accesses::total      4416160                       # number of WriteReq accesses(hits+misses) (Count)
system.cpu.dcache.WriteReq.missRate::cpu.data     0.155352                       # miss rate for WriteReq accesses (Ratio)
system.cpu.dcache.WriteReq.missRate::total     0.155352                       # miss rate for WriteReq accesses (Ratio)
system.cpu.dcache.WriteReq.avgMissLatency::cpu.data 97115.765216                       # average WriteReq miss latency ((Tick/Count))
system.cpu.dcache.WriteReq.avgMissLatency::total 97115.765216                       # average WriteReq miss latency ((Tick/Count))
system.cpu.dcache.WriteReq.mshrMisses::cpu.data       686061                       # number of WriteReq MSHR misses (Count)
system.cpu.dcache.WriteReq.mshrMisses::total       686061                       # number of WriteReq MSHR misses (Count)
system.cpu.dcache.WriteReq.mshrMissLatency::cpu.data  65255217000                       # number of WriteReq MSHR miss ticks (Tick)
system.cpu.dcache.WriteReq.mshrMissLatency::total  65255217000                       # number of WriteReq MSHR miss ticks (Tick)
system.cpu.dcache.WriteReq.mshrMissRate::cpu.data     0.155352                       # mshr miss rate for WriteReq accesses (Ratio)
system.cpu.dcache.WriteReq.mshrMissRate::total     0.155352                       # mshr miss rate for WriteReq accesses (Ratio)
system.cpu.dcache.WriteReq.avgMshrMissLatency::cpu.data 95115.765216                       # average WriteReq mshr miss latency ((Tick/Count))
system.cpu.dcache.WriteReq.avgMshrMissLatency::total 95115.765216                       # average WriteReq mshr miss latency ((Tick/Count))
system.cpu.dcache.power_state.pwrStateResidencyTicks::UNDEFINED 158367019000                       # Cumulative time (in ticks) in various power states (Tick)
system.cpu.dcache.tags.tagsInUse          1022.641778                       # Average ticks per tags in use ((Tick/Count))
system.cpu.dcache.tags.totalRefs             17645032                       # Total number of references to valid blocks. (Count)
system.cpu.dcache.tags.sampledRefs             700900                       # Sample count of references to valid blocks. (Count)
system.cpu.dcache.tags.avgRefs              25.174821                       # Average number of references to valid blocks. ((Count/Count))
system.cpu.dcache.tags.warmupTick              218000                       # The tick when the warmup percentage was hit. (Tick)
system.cpu.dcache.tags.occupancies::cpu.data  1022.641778                       # Average occupied blocks per tick, per requestor ((Count/Tick))
system.cpu.dcache.tags.avgOccs::cpu.data     0.998674                       # Average percentage of cache occupancy ((Ratio/Tick))
system.cpu.dcache.tags.avgOccs::total        0.998674                       # Average percentage of cache occupancy ((Ratio/Tick))
system.cpu.dcache.tags.occupanciesTaskId::1024         1024                       # Occupied blocks per task id (Count)
system.cpu.dcache.tags.ageTaskId_1024::0           27                       # Occupied blocks per task id, per block age (Count)
system.cpu.dcache.tags.ageTaskId_1024::1          325                       # Occupied blocks per task id, per block age (Count)
system.cpu.dcache.tags.ageTaskId_1024::2          671                       # Occupied blocks per task id, per block age (Count)
system.cpu.dcache.tags.ageTaskId_1024::3            1                       # Occupied blocks per task id, per block age (Count)
system.cpu.dcache.tags.ratioOccsTaskId::1024            1                       # Ratio of occupied blocks and all blocks, per task id (Ratio)
system.cpu.dcache.tags.tagAccesses           35990964                       # Number of tag accesses (Count)
system.cpu.dcache.tags.dataAccesses          35990964                       # Number of data accesses (Count)
system.cpu.dcache.tags.power_state.pwrStateResidencyTicks::UNDEFINED 158367019000                       # Cumulative time (in ticks) in various power states (Tick)
system.cpu.exec_context.thread_0.numInsts     25399392                       # Number of instructions committed (Count)
system.cpu.exec_context.thread_0.numOps      43904756                       # Number of ops (including micro ops) committed (Count)
system.cpu.exec_context.thread_0.numIntAluAccesses     43841044                       # Number of integer alu accesses (Count)
system.cpu.exec_context.thread_0.numFpAluAccesses        89485                       # Number of float alu accesses (Count)
system.cpu.exec_context.thread_0.numVecAluAccesses            0                       # Number of vector alu accesses (Count)
system.cpu.exec_context.thread_0.numCallsReturns        20942                       # Number of times a function call or return occured (Count)
system.cpu.exec_context.thread_0.numCondCtrlInsts      2428452                       # Number of instructions that are conditional controls (Count)
system.cpu.exec_context.thread_0.numIntInsts     43841044                       # Number of integer instructions (Count)
system.cpu.exec_context.thread_0.numFpInsts        89485                       # Number of float instructions (Count)
system.cpu.exec_context.thread_0.numVecInsts            0                       # Number of vector instructions (Count)
system.cpu.exec_context.thread_0.numIntRegReads     51742138                       # Number of times the integer registers were read (Count)
system.cpu.exec_context.thread_0.numIntRegWrites     32473211                       # Number of times the integer registers were written (Count)
system.cpu.exec_context.thread_0.numFpRegReads       122216                       # Number of times the floating registers were read (Count)
system.cpu.exec_context.thread_0.numFpRegWrites        65689                       # Number of times the floating registers were written (Count)
system.cpu.exec_context.thread_0.numVecRegReads            0                       # Number of times the vector registers were read (Count)
system.cpu.exec_context.thread_0.numVecRegWrites            0                       # Number of times the vector registers were written (Count)
system.cpu.exec_context.thread_0.numVecPredRegReads            0                       # Number of times the predicate registers were read (Count)
system.cpu.exec_context.thread_0.numVecPredRegWrites            0                       # Number of times the predicate registers were written (Count)
system.cpu.exec_context.thread_0.numCCRegReads     12832915                       # Number of times the CC registers were read (Count)
system.cpu.exec_context.thread_0.numCCRegWrites     14493306                       # Number of times the CC registers were written (Count)
system.cpu.exec_context.thread_0.numMiscRegReads     26815200                       # Number of times the Misc registers were read (Count)
system.cpu.exec_context.thread_0.numMiscRegWrites          693                       # Number of times the Misc registers were written (Count)
system.cpu.exec_context.thread_0.numMemRefs     17645476                       # Number of memory refs (Count)
system.cpu.exec_context.thread_0.numLoadInsts     13229043                       # Number of load instructions (Count)
system.cpu.exec_context.thread_0.numStoreInsts      4416433                       # Number of store instructions (Count)
system.cpu.exec_context.thread_0.numIdleCycles     0.001000                       # Number of idle cycles (Cycle)
system.cpu.exec_context.thread_0.numBusyCycles 158367018.999000                       # Number of busy cycles (Cycle)
system.cpu.exec_context.thread_0.notIdleFraction     1.000000                       # Percentage of non-idle cycles (Ratio)
system.cpu.exec_context.thread_0.idleFraction     0.000000                       # Percentage of idle cycles (Ratio)
system.cpu.exec_context.thread_0.numBranches      4592172                       # Number of branches fetched (Count)
system.cpu.exec_context.thread_0.statExecutedInstType::No_OpClass         8914      0.02%      0.02% # Class of executed instruction. (Count)
system.cpu.exec_context.thread_0.statExecutedInstType::IntAlu     26165517     59.60%     59.62% # Class of executed instruction. (Count)
system.cpu.exec_context.thread_0.statExecutedInstType::IntMult           27      0.00%     59.62% # Class of executed instruction. (Count)
system.cpu.exec_context.thread_0.statExecutedInstType::IntDiv        34601      0.08%     59.69% # Class of executed instruction. (Count)
system.cpu.exec_context.thread_0.statExecutedInstType::FloatAdd         3809      0.01%     59.70% # Class of executed instruction. (Count)
system.cpu.exec_context.thread_0.statExecutedInstType::FloatCmp            0      0.00%     59.70% # Class of executed instruction. (Count)
system.cpu.exec_context.thread_0.statExecutedInstType::FloatCvt         1232      0.00%     59.71% # Class of executed instruction. (Count)
system.cpu.exec_context.thread_0.statExecutedInstType::FloatMult            0      0.00%     59.71% # Class of executed instruction. (Count)
system.cpu.exec_context.thread_0.statExecutedInstType::FloatMultAcc            0      0.00%     59.71% # Class of executed instruction. (Count)
system.cpu.exec_context.thread_0.statExecutedInstType::FloatDiv            0      0.00%     59.71% # Class of executed instruction. (Count)
system.cpu.exec_context.thread_0.statExecutedInstType::FloatMisc            0      0.00%     59.71% # Class of executed instruction. (Count)
system.cpu.exec_context.thread_0.statExecutedInstType::FloatSqrt            0      0.00%     59.71% # Class of executed instruction. (Count)
system.cpu.exec_context.thread_0.statExecutedInstType::SimdAdd         6044      0.01%     59.72% # Class of executed instruction. (Count)
system.cpu.exec_context.thread_0.statExecutedInstType::SimdAddAcc            0      0.00%     59.72% # Class of executed instruction. (Count)
system.cpu.exec_context.thread_0.statExecutedInstType::SimdAlu        13927      0.03%     59.75% # Class of executed instruction. (Count)
system.cpu.exec_context.thread_0.statExecutedInstType::SimdCmp            0      0.00%     59.75% # Class of executed instruction. (Count)
system.cpu.exec_context.thread_0.statExecutedInstType::SimdCvt        11772      0.03%     59.78% # Class of executed instruction. (Count)
system.cpu.exec_context.thread_0.statExecutedInstType::SimdMisc         6889      0.02%     59.79% # Class of executed instruction. (Count)
system.cpu.exec_context.thread_0.statExecutedInstType::SimdMult            0      0.00%     59.79% # Class of executed instruction. (Count)
system.cpu.exec_context.thread_0.statExecutedInstType::SimdMultAcc            0      0.00%     59.79% # Class of executed instruction. (Count)
system.cpu.exec_context.thread_0.statExecutedInstType::SimdShift          913      0.00%     59.80% # Class of executed instruction. (Count)
system.cpu.exec_context.thread_0.statExecutedInstType::SimdShiftAcc            0      0.00%     59.80% # Class of executed instruction. (Count)
system.cpu.exec_context.thread_0.statExecutedInstType::SimdDiv            0      0.00%     59.80% # Class of executed instruction. (Count)
system.cpu.exec_context.thread_0.statExecutedInstType::SimdSqrt            0      0.00%     59.80% # Class of executed instruction. (Count)
system.cpu.exec_context.thread_0.statExecutedInstType::SimdFloatAdd            0      0.00%     59.80% # Class of executed instruction. (Count)
system.cpu.exec_context.thread_0.statExecutedInstType::SimdFloatAlu            0      0.00%     59.80% # Class of executed instruction. (Count)
system.cpu.exec_context.thread_0.statExecutedInstType::SimdFloatCmp            0      0.00%     59.80% # Class of executed instruction. (Count)
system.cpu.exec_context.thread_0.statExecutedInstType::SimdFloatCvt         5004      0.01%     59.81% # Class of executed instruction. (Count)
system.cpu.exec_context.thread_0.statExecutedInstType::SimdFloatDiv            0      0.00%     59.81% # Class of executed instruction. (Count)
system.cpu.exec_context.thread_0.statExecutedInstType::SimdFloatMisc            0      0.00%     59.81% # Class of executed instruction. (Count)
system.cpu.exec_context.thread_0.statExecutedInstType::SimdFloatMult          168      0.00%     59.81% # Class of executed instruction. (Count)
system.cpu.exec_context.thread_0.statExecutedInstType::SimdFloatMultAcc            0      0.00%     59.81% # Class of executed instruction. (Count)
system.cpu.exec_context.thread_0.statExecutedInstType::SimdFloatSqrt          999      0.00%     59.81% # Class of executed instruction. (Count)
system.cpu.exec_context.thread_0.statExecutedInstType::SimdReduceAdd            0      0.00%     59.81% # Class of executed instruction. (Count)
system.cpu.exec_context.thread_0.statExecutedInstType::SimdReduceAlu            0      0.00%     59.81% # Class of executed instruction. (Count)
system.cpu.exec_context.thread_0.statExecutedInstType::SimdReduceCmp            0      0.00%     59.81% # Class of executed instruction. (Count)
system.cpu.exec_context.thread_0.statExecutedInstType::SimdFloatReduceAdd            0      0.00%     59.81% # Class of executed instruction. (Count)
system.cpu.exec_context.thread_0.statExecutedInstType::SimdFloatReduceCmp            0      0.00%     59.81% # Class of executed instruction. (Count)
system.cpu.exec_context.thread_0.statExecutedInstType::SimdAes            0      0.00%     59.81% # Class of executed instruction. (Count)
system.cpu.exec_context.thread_0.statExecutedInstType::SimdAesMix            0      0.00%     59.81% # Class of executed instruction. (Count)
system.cpu.exec_context.thread_0.statExecutedInstType::SimdSha1Hash            0      0.00%     59.81% # Class of executed instruction. (Count)
system.cpu.exec_context.thread_0.statExecutedInstType::SimdSha1Hash2            0      0.00%     59.81% # Class of executed instruction. (Count)
system.cpu.exec_context.thread_0.statExecutedInstType::SimdSha256Hash            0      0.00%     59.81% # Class of executed instruction. (Count)
system.cpu.exec_context.thread_0.statExecutedInstType::SimdSha256Hash2            0      0.00%     59.81% # Class of executed instruction. (Count)
system.cpu.exec_context.thread_0.statExecutedInstType::SimdShaSigma2            0      0.00%     59.81% # Class of executed instruction. (Count)
system.cpu.exec_context.thread_0.statExecutedInstType::SimdShaSigma3            0      0.00%     59.81% # Class of executed instruction. (Count)
system.cpu.exec_context.thread_0.statExecutedInstType::SimdPredAlu            0      0.00%     59.81% # Class of executed instruction. (Count)
system.cpu.exec_context.thread_0.statExecutedInstType::MemRead     13206023     30.08%     89.89% # Class of executed instruction. (Count)
system.cpu.exec_context.thread_0.statExecutedInstType::MemWrite      4403054     10.03%     99.92% # Class of executed instruction. (Count)
system.cpu.exec_context.thread_0.statExecutedInstType::FloatMemRead        23020      0.05%     99.97% # Class of executed instruction. (Count)
system.cpu.exec_context.thread_0.statExecutedInstType::FloatMemWrite        13379      0.03%    100.00% # Class of executed instruction. (Count)
system.cpu.exec_context.thread_0.statExecutedInstType::IprAccess            0      0.00%    100.00% # Class of executed instruction. (Count)
system.cpu.exec_context.thread_0.statExecutedInstType::InstPrefetch            0      0.00%    100.00% # Class of executed instruction. (Count)
system.cpu.exec_context.thread_0.statExecutedInstType::total     43905292                       # Class of executed instruction. (Count)
system.cpu.icache.demandHits::cpu.inst       28204993                       # number of demand (read+write) hits (Count)
system.cpu.icache.demandHits::total          28204993                       # number of demand (read+write) hits (Count)
system.cpu.icache.overallHits::cpu.inst      28204993                       # number of overall hits (Count)
system.cpu.icache.overallHits::total         28204993                       # number of overall hits (Count)
system.cpu.icache.demandMisses::cpu.inst         2308                       # number of demand (read+write) misses (Count)
system.cpu.icache.demandMisses::total            2308                       # number of demand (read+write) misses (Count)
system.cpu.icache.overallMisses::cpu.inst         2308                       # number of overall misses (Count)
system.cpu.icache.overallMisses::total           2308                       # number of overall misses (Count)
system.cpu.icache.demandMissLatency::cpu.inst    188786000                       # number of demand (read+write) miss ticks (Tick)
system.cpu.icache.demandMissLatency::total    188786000                       # number of demand (read+write) miss ticks (Tick)
system.cpu.icache.overallMissLatency::cpu.inst    188786000                       # number of overall miss ticks (Tick)
system.cpu.icache.overallMissLatency::total    188786000                       # number of overall miss ticks (Tick)
system.cpu.icache.demandAccesses::cpu.inst     28207301                       # number of demand (read+write) accesses (Count)
system.cpu.icache.demandAccesses::total      28207301                       # number of demand (read+write) accesses (Count)
system.cpu.icache.overallAccesses::cpu.inst     28207301                       # number of overall (read+write) accesses (Count)
system.cpu.icache.overallAccesses::total     28207301                       # number of overall (read+write) accesses (Count)
system.cpu.icache.demandMissRate::cpu.inst     0.000082                       # miss rate for demand accesses (Ratio)
system.cpu.icache.demandMissRate::total      0.000082                       # miss rate for demand accesses (Ratio)
system.cpu.icache.overallMissRate::cpu.inst     0.000082                       # miss rate for overall accesses (Ratio)
system.cpu.icache.overallMissRate::total     0.000082                       # miss rate for overall accesses (Ratio)
system.cpu.icache.demandAvgMissLatency::cpu.inst 81796.360485                       # average overall miss latency in ticks ((Tick/Count))
system.cpu.icache.demandAvgMissLatency::total 81796.360485                       # average overall miss latency in ticks ((Tick/Count))
system.cpu.icache.overallAvgMissLatency::cpu.inst 81796.360485                       # average overall miss latency ((Tick/Count))
system.cpu.icache.overallAvgMissLatency::total 81796.360485                       # average overall miss latency ((Tick/Count))
system.cpu.icache.blockedCycles::no_mshrs            0                       # number of cycles access was blocked (Cycle)
system.cpu.icache.blockedCycles::no_targets            0                       # number of cycles access was blocked (Cycle)
system.cpu.icache.blockedCauses::no_mshrs            0                       # number of times access was blocked (Count)
system.cpu.icache.blockedCauses::no_targets            0                       # number of times access was blocked (Count)
system.cpu.icache.avgBlocked::no_mshrs            nan                       # average number of cycles each access was blocked ((Cycle/Count))
system.cpu.icache.avgBlocked::no_targets          nan                       # average number of cycles each access was blocked ((Cycle/Count))
system.cpu.icache.demandMshrMisses::cpu.inst         2308                       # number of demand (read+write) MSHR misses (Count)
system.cpu.icache.demandMshrMisses::total         2308                       # number of demand (read+write) MSHR misses (Count)
system.cpu.icache.overallMshrMisses::cpu.inst         2308                       # number of overall MSHR misses (Count)
system.cpu.icache.overallMshrMisses::total         2308                       # number of overall MSHR misses (Count)
system.cpu.icache.demandMshrMissLatency::cpu.inst    184170000                       # number of demand (read+write) MSHR miss ticks (Tick)
system.cpu.icache.demandMshrMissLatency::total    184170000                       # number of demand (read+write) MSHR miss ticks (Tick)
system.cpu.icache.overallMshrMissLatency::cpu.inst    184170000                       # number of overall MSHR miss ticks (Tick)
system.cpu.icache.overallMshrMissLatency::total    184170000                       # number of overall MSHR miss ticks (Tick)
system.cpu.icache.demandMshrMissRate::cpu.inst     0.000082                       # mshr miss ratio for demand accesses (Ratio)
system.cpu.icache.demandMshrMissRate::total     0.000082                       # mshr miss ratio for demand accesses (Ratio)
system.cpu.icache.overallMshrMissRate::cpu.inst     0.000082                       # mshr miss ratio for overall accesses (Ratio)
system.cpu.icache.overallMshrMissRate::total     0.000082                       # mshr miss ratio for overall accesses (Ratio)
system.cpu.icache.demandAvgMshrMissLatency::cpu.inst 79796.360485                       # average overall mshr miss latency ((Tick/Count))
system.cpu.icache.demandAvgMshrMissLatency::total 79796.360485                       # average overall mshr miss latency ((Tick/Count))
system.cpu.icache.overallAvgMshrMissLatency::cpu.inst 79796.360485                       # average overall mshr miss latency ((Tick/Count))
system.cpu.icache.overallAvgMshrMissLatency::total 79796.360485                       # average overall mshr miss latency ((Tick/Count))
system.cpu.icache.replacements                   2052                       # number of replacements (Count)
system.cpu.icache.ReadReq.hits::cpu.inst     28204993                       # number of ReadReq hits (Count)
system.cpu.icache.ReadReq.hits::total        28204993                       # number of ReadReq hits (Count)
system.cpu.icache.ReadReq.misses::cpu.inst         2308                       # number of ReadReq misses (Count)
system.cpu.icache.ReadReq.misses::total          2308                       # number of ReadReq misses (Count)
system.cpu.icache.ReadReq.missLatency::cpu.inst    188786000                       # number of ReadReq miss ticks (Tick)
system.cpu.icache.ReadReq.missLatency::total    188786000                       # number of ReadReq miss ticks (Tick)
system.cpu.icache.ReadReq.accesses::cpu.inst     28207301                       # number of ReadReq accesses(hits+misses) (Count)
system.cpu.icache.ReadReq.accesses::total     28207301                       # number of ReadReq accesses(hits+misses) (Count)
system.cpu.icache.ReadReq.missRate::cpu.inst     0.000082                       # miss rate for ReadReq accesses (Ratio)
system.cpu.icache.ReadReq.missRate::total     0.000082                       # miss rate for ReadReq accesses (Ratio)
system.cpu.icache.ReadReq.avgMissLatency::cpu.inst 81796.360485                       # average ReadReq miss latency ((Tick/Count))
system.cpu.icache.ReadReq.avgMissLatency::total 81796.360485                       # average ReadReq miss latency ((Tick/Count))
system.cpu.icache.ReadReq.mshrMisses::cpu.inst         2308                       # number of ReadReq MSHR misses (Count)
system.cpu.icache.ReadReq.mshrMisses::total         2308                       # number of ReadReq MSHR misses (Count)
system.cpu.icache.ReadReq.mshrMissLatency::cpu.inst    184170000                       # number of ReadReq MSHR miss ticks (Tick)
system.cpu.icache.ReadReq.mshrMissLatency::total    184170000                       # number of ReadReq MSHR miss ticks (Tick)
system.cpu.icache.ReadReq.mshrMissRate::cpu.inst     0.000082                       # mshr miss rate for ReadReq accesses (Ratio)
system.cpu.icache.ReadReq.mshrMissRate::total     0.000082                       # mshr miss rate for ReadReq accesses (Ratio)
system.cpu.icache.ReadReq.avgMshrMissLatency::cpu.inst 79796.360485                       # average ReadReq mshr miss latency ((Tick/Count))
system.cpu.icache.ReadReq.avgMshrMissLatency::total 79796.360485                       # average ReadReq mshr miss latency ((Tick/Count))
system.cpu.icache.power_state.pwrStateResidencyTicks::UNDEFINED 158367019000                       # Cumulative time (in ticks) in various power states (Tick)
system.cpu.icache.tags.tagsInUse           255.831455                       # Average ticks per tags in use ((Tick/Count))
system.cpu.icache.tags.totalRefs             28207301                       # Total number of references to valid blocks. (Count)
system.cpu.icache.tags.sampledRefs               2308                       # Sample count of references to valid blocks. (Count)
system.cpu.icache.tags.avgRefs           12221.534229                       # Average number of references to valid blocks. ((Count/Count))
system.cpu.icache.tags.warmupTick              107000                       # The tick when the warmup percentage was hit. (Tick)
system.cpu.icache.tags.occupancies::cpu.inst   255.831455                       # Average occupied blocks per tick, per requestor ((Count/Tick))
system.cpu.icache.tags.avgOccs::cpu.inst     0.999342                       # Average percentage of cache occupancy ((Ratio/Tick))
system.cpu.icache.tags.avgOccs::total        0.999342                       # Average percentage of cache occupancy ((Ratio/Tick))
system.cpu.icache.tags.occupanciesTaskId::1024          256                       # Occupied blocks per task id (Count)
system.cpu.icache.tags.ageTaskId_1024::0           37                       # Occupied blocks per task id, per block age (Count)
system.cpu.icache.tags.ageTaskId_1024::1           86                       # Occupied blocks per task id, per block age (Count)
system.cpu.icache.tags.ageTaskId_1024::4          133                       # Occupied blocks per task id, per block age (Count)
system.cpu.icache.tags.ratioOccsTaskId::1024            1                       # Ratio of occupied blocks and all blocks, per task id (Ratio)
system.cpu.icache.tags.tagAccesses           56416910                       # Number of tag accesses (Count)
system.cpu.icache.tags.dataAccesses          56416910                       # Number of data accesses (Count)
system.cpu.icache.tags.power_state.pwrStateResidencyTicks::UNDEFINED 158367019000                       # Cumulative time (in ticks) in various power states (Tick)
system.cpu.interrupts.clk_domain.clock          16000                       # Clock period in ticks (Tick)
system.cpu.mmu.dtb.rdAccesses                13229072                       # TLB accesses on read requests (Count)
system.cpu.mmu.dtb.wrAccesses                 4416438                       # TLB accesses on write requests (Count)
system.cpu.mmu.dtb.rdMisses                      2227                       # TLB misses on read requests (Count)
system.cpu.mmu.dtb.wrMisses                     29005                       # TLB misses on write requests (Count)
system.cpu.mmu.dtb.walker.power_state.pwrStateResidencyTicks::UNDEFINED 158367019000                       # Cumulative time (in ticks) in various power states (Tick)
system.cpu.mmu.itb.rdAccesses                       0                       # TLB accesses on read requests (Count)
system.cpu.mmu.itb.wrAccesses                28207405                       # TLB accesses on write requests (Count)
system.cpu.mmu.itb.rdMisses                         0                       # TLB misses on read requests (Count)
system.cpu.mmu.itb.wrMisses                       382                       # TLB misses on write requests (Count)
system.cpu.mmu.itb.walker.power_state.pwrStateResidencyTicks::UNDEFINED 158367019000                       # Cumulative time (in ticks) in various power states (Tick)
system.cpu.power_state.pwrStateResidencyTicks::ON 158367019000                       # Cumulative time (in ticks) in various power states (Tick)
system.cpu.thread_0.numInsts                        0                       # Number of Instructions committed (Count)
system.cpu.thread_0.numOps                          0                       # Number of Ops committed (Count)
system.cpu.thread_0.numMemRefs                      0                       # Number of Memory References (Count)
system.cpu.workload.numSyscalls                    58                       # Number of system calls (Count)
system.l2bus.transDist::ReadResp                17147                       # Transaction distribution (Count)
system.l2bus.transDist::WritebackDirty        1307329                       # Transaction distribution (Count)
system.l2bus.transDist::CleanEvict             196703                       # Transaction distribution (Count)
system.l2bus.transDist::ReadExReq              686061                       # Transaction distribution (Count)
system.l2bus.transDist::ReadExResp             686061                       # Transaction distribution (Count)
system.l2bus.transDist::ReadSharedReq           17147                       # Transaction distribution (Count)
system.l2bus.pktCount_system.cpu.icache.mem_side_port::system.l2cache.cpu_side_port         6668                       # Packet count per connected requestor and responder (Count)
system.l2bus.pktCount_system.cpu.dcache.mem_side_port::system.l2cache.cpu_side_port      2101676                       # Packet count per connected requestor and responder (Count)
system.l2bus.pktCount::total                  2108344                       # Packet count per connected requestor and responder (Count)
system.l2bus.pktSize_system.cpu.icache.mem_side_port::system.l2cache.cpu_side_port       147712                       # Cumulative packet size per connected requestor and responder (Byte)
system.l2bus.pktSize_system.cpu.dcache.mem_side_port::system.l2cache.cpu_side_port     88824128                       # Cumulative packet size per connected requestor and responder (Byte)
system.l2bus.pktSize::total                  88971840                       # Cumulative packet size per connected requestor and responder (Byte)
system.l2bus.snoops                            802104                       # Total snoops (Count)
system.l2bus.snoopTraffic                    39702528                       # Total snoop traffic (Byte)
system.l2bus.snoopFanout::samples             1505312                       # Request fanout histogram (Count)
system.l2bus.snoopFanout::mean               0.115270                       # Request fanout histogram (Count)
system.l2bus.snoopFanout::stdev              0.319408                       # Request fanout histogram (Count)
system.l2bus.snoopFanout::underflows                0      0.00%      0.00% # Request fanout histogram (Count)
system.l2bus.snoopFanout::0                   1331823     88.47%     88.47% # Request fanout histogram (Count)
system.l2bus.snoopFanout::1                    173460     11.52%    100.00% # Request fanout histogram (Count)
system.l2bus.snoopFanout::2                        29      0.00%    100.00% # Request fanout histogram (Count)
system.l2bus.snoopFanout::overflows                 0      0.00%    100.00% # Request fanout histogram (Count)
system.l2bus.snoopFanout::min_value                 0                       # Request fanout histogram (Count)
system.l2bus.snoopFanout::max_value                 2                       # Request fanout histogram (Count)
system.l2bus.snoopFanout::total               1505312                       # Request fanout histogram (Count)
system.l2bus.power_state.pwrStateResidencyTicks::UNDEFINED 158367019000                       # Cumulative time (in ticks) in various power states (Tick)
system.l2bus.reqLayer0.occupancy           2779090000                       # Layer occupancy (ticks) (Tick)
system.l2bus.reqLayer0.utilization                0.0                       # Layer utilization (Ratio)
system.l2bus.respLayer0.occupancy             6924000                       # Layer occupancy (ticks) (Tick)
system.l2bus.respLayer0.utilization               0.0                       # Layer utilization (Ratio)
system.l2bus.respLayer1.occupancy          2102700000                       # Layer occupancy (ticks) (Tick)
system.l2bus.respLayer1.utilization               0.0                       # Layer utilization (Ratio)
system.l2bus.snoop_filter.totRequests         1405136                       # Total number of requests made to the snoop filter. (Count)
system.l2bus.snoop_filter.hitSingleRequests       701928                       # Number of requests hitting in the snoop filter with a single holder of the requested data. (Count)
system.l2bus.snoop_filter.hitMultiRequests          126                       # Number of requests hitting in the snoop filter with multiple (>1) holders of the requested data. (Count)
system.l2bus.snoop_filter.totSnoops            173363                       # Total number of snoops made to the snoop filter. (Count)
system.l2bus.snoop_filter.hitSingleSnoops       173334                       # Number of snoops hitting in the snoop filter with a single holder of the requested data. (Count)
system.l2bus.snoop_filter.hitMultiSnoops           29                       # Number of snoops hitting in the snoop filter with multiple (>1) holders of the requested data. (Count)
system.l2cache.demandHits::cpu.inst               685                       # number of demand (read+write) hits (Count)
system.l2cache.demandHits::cpu.data             66929                       # number of demand (read+write) hits (Count)
system.l2cache.demandHits::total                67614                       # number of demand (read+write) hits (Count)
system.l2cache.overallHits::cpu.inst              685                       # number of overall hits (Count)
system.l2cache.overallHits::cpu.data            66929                       # number of overall hits (Count)
system.l2cache.overallHits::total               67614                       # number of overall hits (Count)
system.l2cache.demandMisses::cpu.inst            1623                       # number of demand (read+write) misses (Count)
system.l2cache.demandMisses::cpu.data          633971                       # number of demand (read+write) misses (Count)
system.l2cache.demandMisses::total             635594                       # number of demand (read+write) misses (Count)
system.l2cache.overallMisses::cpu.inst           1623                       # number of overall misses (Count)
system.l2cache.overallMisses::cpu.data         633971                       # number of overall misses (Count)
system.l2cache.overallMisses::total            635594                       # number of overall misses (Count)
system.l2cache.demandMissLatency::cpu.inst    162857000                       # number of demand (read+write) miss ticks (Tick)
system.l2cache.demandMissLatency::cpu.data  62943590000                       # number of demand (read+write) miss ticks (Tick)
system.l2cache.demandMissLatency::total   63106447000                       # number of demand (read+write) miss ticks (Tick)
system.l2cache.overallMissLatency::cpu.inst    162857000                       # number of overall miss ticks (Tick)
system.l2cache.overallMissLatency::cpu.data  62943590000                       # number of overall miss ticks (Tick)
system.l2cache.overallMissLatency::total  63106447000                       # number of overall miss ticks (Tick)
system.l2cache.demandAccesses::cpu.inst          2308                       # number of demand (read+write) accesses (Count)
system.l2cache.demandAccesses::cpu.data        700900                       # number of demand (read+write) accesses (Count)
system.l2cache.demandAccesses::total           703208                       # number of demand (read+write) accesses (Count)
system.l2cache.overallAccesses::cpu.inst         2308                       # number of overall (read+write) accesses (Count)
system.l2cache.overallAccesses::cpu.data       700900                       # number of overall (read+write) accesses (Count)
system.l2cache.overallAccesses::total          703208                       # number of overall (read+write) accesses (Count)
system.l2cache.demandMissRate::cpu.inst      0.703206                       # miss rate for demand accesses (Ratio)
system.l2cache.demandMissRate::cpu.data      0.904510                       # miss rate for demand accesses (Ratio)
system.l2cache.demandMissRate::total         0.903849                       # miss rate for demand accesses (Ratio)
system.l2cache.overallMissRate::cpu.inst     0.703206                       # miss rate for overall accesses (Ratio)
system.l2cache.overallMissRate::cpu.data     0.904510                       # miss rate for overall accesses (Ratio)
system.l2cache.overallMissRate::total        0.903849                       # miss rate for overall accesses (Ratio)
system.l2cache.demandAvgMissLatency::cpu.inst 100343.191620                       # average overall miss latency in ticks ((Tick/Count))
system.l2cache.demandAvgMissLatency::cpu.data 99284.651822                       # average overall miss latency in ticks ((Tick/Count))
system.l2cache.demandAvgMissLatency::total 99287.354821                       # average overall miss latency in ticks ((Tick/Count))
system.l2cache.overallAvgMissLatency::cpu.inst 100343.191620                       # average overall miss latency ((Tick/Count))
system.l2cache.overallAvgMissLatency::cpu.data 99284.651822                       # average overall miss latency ((Tick/Count))
system.l2cache.overallAvgMissLatency::total 99287.354821                       # average overall miss latency ((Tick/Count))
system.l2cache.blockedCycles::no_mshrs              0                       # number of cycles access was blocked (Cycle)
system.l2cache.blockedCycles::no_targets            0                       # number of cycles access was blocked (Cycle)
system.l2cache.blockedCauses::no_mshrs              0                       # number of times access was blocked (Count)
system.l2cache.blockedCauses::no_targets            0                       # number of times access was blocked (Count)
system.l2cache.avgBlocked::no_mshrs               nan                       # average number of cycles each access was blocked ((Cycle/Count))
system.l2cache.avgBlocked::no_targets             nan                       # average number of cycles each access was blocked ((Cycle/Count))
system.l2cache.writebacks::writebacks          620352                       # number of writebacks (Count)
system.l2cache.writebacks::total               620352                       # number of writebacks (Count)
system.l2cache.demandMshrMisses::cpu.inst         1623                       # number of demand (read+write) MSHR misses (Count)
system.l2cache.demandMshrMisses::cpu.data       633971                       # number of demand (read+write) MSHR misses (Count)
system.l2cache.demandMshrMisses::total         635594                       # number of demand (read+write) MSHR misses (Count)
system.l2cache.overallMshrMisses::cpu.inst         1623                       # number of overall MSHR misses (Count)
system.l2cache.overallMshrMisses::cpu.data       633971                       # number of overall MSHR misses (Count)
system.l2cache.overallMshrMisses::total        635594                       # number of overall MSHR misses (Count)
system.l2cache.demandMshrMissLatency::cpu.inst    130397000                       # number of demand (read+write) MSHR miss ticks (Tick)
system.l2cache.demandMshrMissLatency::cpu.data  50264170000                       # number of demand (read+write) MSHR miss ticks (Tick)
system.l2cache.demandMshrMissLatency::total  50394567000                       # number of demand (read+write) MSHR miss ticks (Tick)
system.l2cache.overallMshrMissLatency::cpu.inst    130397000                       # number of overall MSHR miss ticks (Tick)
system.l2cache.overallMshrMissLatency::cpu.data  50264170000                       # number of overall MSHR miss ticks (Tick)
system.l2cache.overallMshrMissLatency::total  50394567000                       # number of overall MSHR miss ticks (Tick)
system.l2cache.demandMshrMissRate::cpu.inst     0.703206                       # mshr miss ratio for demand accesses (Ratio)
system.l2cache.demandMshrMissRate::cpu.data     0.904510                       # mshr miss ratio for demand accesses (Ratio)
system.l2cache.demandMshrMissRate::total     0.903849                       # mshr miss ratio for demand accesses (Ratio)
system.l2cache.overallMshrMissRate::cpu.inst     0.703206                       # mshr miss ratio for overall accesses (Ratio)
system.l2cache.overallMshrMissRate::cpu.data     0.904510                       # mshr miss ratio for overall accesses (Ratio)
system.l2cache.overallMshrMissRate::total     0.903849                       # mshr miss ratio for overall accesses (Ratio)
system.l2cache.demandAvgMshrMissLatency::cpu.inst 80343.191620                       # average overall mshr miss latency ((Tick/Count))
system.l2cache.demandAvgMshrMissLatency::cpu.data 79284.651822                       # average overall mshr miss latency ((Tick/Count))
system.l2cache.demandAvgMshrMissLatency::total 79287.354821                       # average overall mshr miss latency ((Tick/Count))
system.l2cache.overallAvgMshrMissLatency::cpu.inst 80343.191620                       # average overall mshr miss latency ((Tick/Count))
system.l2cache.overallAvgMshrMissLatency::cpu.data 79284.651822                       # average overall mshr miss latency ((Tick/Count))
system.l2cache.overallAvgMshrMissLatency::total 79287.354821                       # average overall mshr miss latency ((Tick/Count))
system.l2cache.replacements                    802104                       # number of replacements (Count)
system.l2cache.CleanEvict.mshrMisses::writebacks         2432                       # number of CleanEvict MSHR misses (Count)
system.l2cache.CleanEvict.mshrMisses::total         2432                       # number of CleanEvict MSHR misses (Count)
system.l2cache.CleanEvict.mshrMissRate::writebacks          inf                       # mshr miss rate for CleanEvict accesses (Ratio)
system.l2cache.CleanEvict.mshrMissRate::total          inf                       # mshr miss rate for CleanEvict accesses (Ratio)
system.l2cache.ReadExReq.hits::cpu.data         62217                       # number of ReadExReq hits (Count)
system.l2cache.ReadExReq.hits::total            62217                       # number of ReadExReq hits (Count)
system.l2cache.ReadExReq.misses::cpu.data       623844                       # number of ReadExReq misses (Count)
system.l2cache.ReadExReq.misses::total         623844                       # number of ReadExReq misses (Count)
system.l2cache.ReadExReq.missLatency::cpu.data  61890451000                       # number of ReadExReq miss ticks (Tick)
system.l2cache.ReadExReq.missLatency::total  61890451000                       # number of ReadExReq miss ticks (Tick)
system.l2cache.ReadExReq.accesses::cpu.data       686061                       # number of ReadExReq accesses(hits+misses) (Count)
system.l2cache.ReadExReq.accesses::total       686061                       # number of ReadExReq accesses(hits+misses) (Count)
system.l2cache.ReadExReq.missRate::cpu.data     0.909313                       # miss rate for ReadExReq accesses (Ratio)
system.l2cache.ReadExReq.missRate::total     0.909313                       # miss rate for ReadExReq accesses (Ratio)
system.l2cache.ReadExReq.avgMissLatency::cpu.data 99208.217118                       # average ReadExReq miss latency ((Tick/Count))
system.l2cache.ReadExReq.avgMissLatency::total 99208.217118                       # average ReadExReq miss latency ((Tick/Count))
system.l2cache.ReadExReq.mshrMisses::cpu.data       623844                       # number of ReadExReq MSHR misses (Count)
system.l2cache.ReadExReq.mshrMisses::total       623844                       # number of ReadExReq MSHR misses (Count)
system.l2cache.ReadExReq.mshrMissLatency::cpu.data  49413571000                       # number of ReadExReq MSHR miss ticks (Tick)
system.l2cache.ReadExReq.mshrMissLatency::total  49413571000                       # number of ReadExReq MSHR miss ticks (Tick)
system.l2cache.ReadExReq.mshrMissRate::cpu.data     0.909313                       # mshr miss rate for ReadExReq accesses (Ratio)
system.l2cache.ReadExReq.mshrMissRate::total     0.909313                       # mshr miss rate for ReadExReq accesses (Ratio)
system.l2cache.ReadExReq.avgMshrMissLatency::cpu.data 79208.217118                       # average ReadExReq mshr miss latency ((Tick/Count))
system.l2cache.ReadExReq.avgMshrMissLatency::total 79208.217118                       # average ReadExReq mshr miss latency ((Tick/Count))
system.l2cache.ReadSharedReq.hits::cpu.inst          685                       # number of ReadSharedReq hits (Count)
system.l2cache.ReadSharedReq.hits::cpu.data         4712                       # number of ReadSharedReq hits (Count)
system.l2cache.ReadSharedReq.hits::total         5397                       # number of ReadSharedReq hits (Count)
system.l2cache.ReadSharedReq.misses::cpu.inst         1623                       # number of ReadSharedReq misses (Count)
system.l2cache.ReadSharedReq.misses::cpu.data        10127                       # number of ReadSharedReq misses (Count)
system.l2cache.ReadSharedReq.misses::total        11750                       # number of ReadSharedReq misses (Count)
system.l2cache.ReadSharedReq.missLatency::cpu.inst    162857000                       # number of ReadSharedReq miss ticks (Tick)
system.l2cache.ReadSharedReq.missLatency::cpu.data   1053139000                       # number of ReadSharedReq miss ticks (Tick)
system.l2cache.ReadSharedReq.missLatency::total   1215996000                       # number of ReadSharedReq miss ticks (Tick)
system.l2cache.ReadSharedReq.accesses::cpu.inst         2308                       # number of ReadSharedReq accesses(hits+misses) (Count)
system.l2cache.ReadSharedReq.accesses::cpu.data        14839                       # number of ReadSharedReq accesses(hits+misses) (Count)
system.l2cache.ReadSharedReq.accesses::total        17147                       # number of ReadSharedReq accesses(hits+misses) (Count)
system.l2cache.ReadSharedReq.missRate::cpu.inst     0.703206                       # miss rate for ReadSharedReq accesses (Ratio)
system.l2cache.ReadSharedReq.missRate::cpu.data     0.682458                       # miss rate for ReadSharedReq accesses (Ratio)
system.l2cache.ReadSharedReq.missRate::total     0.685251                       # miss rate for ReadSharedReq accesses (Ratio)
system.l2cache.ReadSharedReq.avgMissLatency::cpu.inst 100343.191620                       # average ReadSharedReq miss latency ((Tick/Count))
system.l2cache.ReadSharedReq.avgMissLatency::cpu.data 103993.186531                       # average ReadSharedReq miss latency ((Tick/Count))
system.l2cache.ReadSharedReq.avgMissLatency::total 103489.021277                       # average ReadSharedReq miss latency ((Tick/Count))
system.l2cache.ReadSharedReq.mshrMisses::cpu.inst         1623                       # number of ReadSharedReq MSHR misses (Count)
system.l2cache.ReadSharedReq.mshrMisses::cpu.data        10127                       # number of ReadSharedReq MSHR misses (Count)
system.l2cache.ReadSharedReq.mshrMisses::total        11750                       # number of ReadSharedReq MSHR misses (Count)
system.l2cache.ReadSharedReq.mshrMissLatency::cpu.inst    130397000                       # number of ReadSharedReq MSHR miss ticks (Tick)
system.l2cache.ReadSharedReq.mshrMissLatency::cpu.data    850599000                       # number of ReadSharedReq MSHR miss ticks (Tick)
system.l2cache.ReadSharedReq.mshrMissLatency::total    980996000                       # number of ReadSharedReq MSHR miss ticks (Tick)
system.l2cache.ReadSharedReq.mshrMissRate::cpu.inst     0.703206                       # mshr miss rate for ReadSharedReq accesses (Ratio)
system.l2cache.ReadSharedReq.mshrMissRate::cpu.data     0.682458                       # mshr miss rate for ReadSharedReq accesses (Ratio)
system.l2cache.ReadSharedReq.mshrMissRate::total     0.685251                       # mshr miss rate for ReadSharedReq accesses (Ratio)
system.l2cache.ReadSharedReq.avgMshrMissLatency::cpu.inst 80343.191620                       # average ReadSharedReq mshr miss latency ((Tick/Count))
system.l2cache.ReadSharedReq.avgMshrMissLatency::cpu.data 83993.186531                       # average ReadSharedReq mshr miss latency ((Tick/Count))
system.l2cache.ReadSharedReq.avgMshrMissLatency::total 83489.021277                       # average ReadSharedReq mshr miss latency ((Tick/Count))
system.l2cache.WritebackDirty.hits::writebacks       686977                       # number of WritebackDirty hits (Count)
system.l2cache.WritebackDirty.hits::total       686977                       # number of WritebackDirty hits (Count)
system.l2cache.WritebackDirty.accesses::writebacks       686977                       # number of WritebackDirty accesses(hits+misses) (Count)
system.l2cache.WritebackDirty.accesses::total       686977                       # number of WritebackDirty accesses(hits+misses) (Count)
system.l2cache.power_state.pwrStateResidencyTicks::UNDEFINED 158367019000                       # Cumulative time (in ticks) in various power states (Tick)
system.l2cache.tags.tagsInUse             4079.283320                       # Average ticks per tags in use ((Tick/Count))
system.l2cache.tags.totalRefs                 1402578                       # Total number of references to valid blocks. (Count)
system.l2cache.tags.sampledRefs                806200                       # Sample count of references to valid blocks. (Count)
system.l2cache.tags.avgRefs                  1.739740                       # Average number of references to valid blocks. ((Count/Count))
system.l2cache.tags.warmupTick                  86000                       # The tick when the warmup percentage was hit. (Tick)
system.l2cache.tags.occupancies::writebacks   807.549752                       # Average occupied blocks per tick, per requestor ((Count/Tick))
system.l2cache.tags.occupancies::cpu.inst    39.320371                       # Average occupied blocks per tick, per requestor ((Count/Tick))
system.l2cache.tags.occupancies::cpu.data  3232.413197                       # Average occupied blocks per tick, per requestor ((Count/Tick))
system.l2cache.tags.avgOccs::writebacks      0.197156                       # Average percentage of cache occupancy ((Ratio/Tick))
system.l2cache.tags.avgOccs::cpu.inst        0.009600                       # Average percentage of cache occupancy ((Ratio/Tick))
system.l2cache.tags.avgOccs::cpu.data        0.789163                       # Average percentage of cache occupancy ((Ratio/Tick))
system.l2cache.tags.avgOccs::total           0.995919                       # Average percentage of cache occupancy ((Ratio/Tick))
system.l2cache.tags.occupanciesTaskId::1024         4096                       # Occupied blocks per task id (Count)
system.l2cache.tags.ageTaskId_1024::0              70                       # Occupied blocks per task id, per block age (Count)
system.l2cache.tags.ageTaskId_1024::1             430                       # Occupied blocks per task id, per block age (Count)
system.l2cache.tags.ageTaskId_1024::2            2500                       # Occupied blocks per task id, per block age (Count)
system.l2cache.tags.ageTaskId_1024::3            1096                       # Occupied blocks per task id, per block age (Count)
system.l2cache.tags.ratioOccsTaskId::1024            1                       # Ratio of occupied blocks and all blocks, per task id (Ratio)
system.l2cache.tags.tagAccesses              12046280                       # Number of tag accesses (Count)
system.l2cache.tags.dataAccesses             12046280                       # Number of data accesses (Count)
system.l2cache.tags.power_state.pwrStateResidencyTicks::UNDEFINED 158367019000                       # Cumulative time (in ticks) in various power states (Tick)
system.mem_ctrl.avgPriority_writebacks::samples    620352.00                       # Average QoS priority value for accepted requests (Count)
system.mem_ctrl.avgPriority_cpu.inst::samples      1623.00                       # Average QoS priority value for accepted requests (Count)
system.mem_ctrl.avgPriority_cpu.data::samples    633877.00                       # Average QoS priority value for accepted requests (Count)
system.mem_ctrl.priorityMinLatency       0.000000018750                       # per QoS priority minimum request to response latency (Second)
system.mem_ctrl.priorityMaxLatency       0.001756048500                       # per QoS priority maximum request to response latency (Second)
system.mem_ctrl.numReadWriteTurnArounds         36510                       # Number of turnarounds from READ to WRITE (Count)
system.mem_ctrl.numWriteReadTurnArounds         36510                       # Number of turnarounds from WRITE to READ (Count)
system.mem_ctrl.numStayReadState              1902703                       # Number of times bus staying in READ state (Count)
system.mem_ctrl.numStayWriteState              584483                       # Number of times bus staying in WRITE state (Count)
system.mem_ctrl.readReqs                       635594                       # Number of read requests accepted (Count)
system.mem_ctrl.writeReqs                      620352                       # Number of write requests accepted (Count)
system.mem_ctrl.readBursts                     635594                       # Number of controller read bursts, including those serviced by the write queue (Count)
system.mem_ctrl.writeBursts                    620352                       # Number of controller write bursts, including those merged in the write queue (Count)
system.mem_ctrl.servicedByWrQ                      94                       # Number of controller read bursts serviced by the write queue (Count)
system.mem_ctrl.mergedWrBursts                      0                       # Number of controller write bursts merged with an existing one (Count)
system.mem_ctrl.neitherReadNorWriteReqs             0                       # Number of requests that are neither read nor write (Count)
system.mem_ctrl.avgRdQLen                        1.00                       # Average read queue length when enqueuing ((Count/Tick))
system.mem_ctrl.avgWrQLen                       24.78                       # Average write queue length when enqueuing ((Count/Tick))
system.mem_ctrl.numRdRetry                          0                       # Number of times read queue was full causing retry (Count)
system.mem_ctrl.numWrRetry                          0                       # Number of times write queue was full causing retry (Count)
system.mem_ctrl.readPktSize::0                      0                       # Read request sizes (log2) (Count)
system.mem_ctrl.readPktSize::1                      0                       # Read request sizes (log2) (Count)
system.mem_ctrl.readPktSize::2                      0                       # Read request sizes (log2) (Count)
system.mem_ctrl.readPktSize::3                      0                       # Read request sizes (log2) (Count)
system.mem_ctrl.readPktSize::4                      0                       # Read request sizes (log2) (Count)
system.mem_ctrl.readPktSize::5                      0                       # Read request sizes (log2) (Count)
system.mem_ctrl.readPktSize::6                 635594                       # Read request sizes (log2) (Count)
system.mem_ctrl.writePktSize::0                     0                       # Write request sizes (log2) (Count)
system.mem_ctrl.writePktSize::1                     0                       # Write request sizes (log2) (Count)
system.mem_ctrl.writePktSize::2                     0                       # Write request sizes (log2) (Count)
system.mem_ctrl.writePktSize::3                     0                       # Write request sizes (log2) (Count)
system.mem_ctrl.writePktSize::4                     0                       # Write request sizes (log2) (Count)
system.mem_ctrl.writePktSize::5                     0                       # Write request sizes (log2) (Count)
system.mem_ctrl.writePktSize::6                620352                       # Write request sizes (log2) (Count)
system.mem_ctrl.rdQLenPdf::0                   635500                       # What read queue length does an incoming req see (Count)
system.mem_ctrl.rdQLenPdf::1                        0                       # What read queue length does an incoming req see (Count)
system.mem_ctrl.rdQLenPdf::2                        0                       # What read queue length does an incoming req see (Count)
system.mem_ctrl.rdQLenPdf::3                        0                       # What read queue length does an incoming req see (Count)
system.mem_ctrl.rdQLenPdf::4                        0                       # What read queue length does an incoming req see (Count)
system.mem_ctrl.rdQLenPdf::5                        0                       # What read queue length does an incoming req see (Count)
system.mem_ctrl.rdQLenPdf::6                        0                       # What read queue length does an incoming req see (Count)
system.mem_ctrl.rdQLenPdf::7                        0                       # What read queue length does an incoming req see (Count)
system.mem_ctrl.rdQLenPdf::8                        0                       # What read queue length does an incoming req see (Count)
system.mem_ctrl.rdQLenPdf::9                        0                       # What read queue length does an incoming req see (Count)
system.mem_ctrl.rdQLenPdf::10                       0                       # What read queue length does an incoming req see (Count)
system.mem_ctrl.rdQLenPdf::11                       0                       # What read queue length does an incoming req see (Count)
system.mem_ctrl.rdQLenPdf::12                       0                       # What read queue length does an incoming req see (Count)
system.mem_ctrl.rdQLenPdf::13                       0                       # What read queue length does an incoming req see (Count)
system.mem_ctrl.rdQLenPdf::14                       0                       # What read queue length does an incoming req see (Count)
system.mem_ctrl.rdQLenPdf::15                       0                       # What read queue length does an incoming req see (Count)
system.mem_ctrl.rdQLenPdf::16                       0                       # What read queue length does an incoming req see (Count)
system.mem_ctrl.rdQLenPdf::17                       0                       # What read queue length does an incoming req see (Count)
system.mem_ctrl.rdQLenPdf::18                       0                       # What read queue length does an incoming req see (Count)
system.mem_ctrl.rdQLenPdf::19                       0                       # What read queue length does an incoming req see (Count)
system.mem_ctrl.rdQLenPdf::20                       0                       # What read queue length does an incoming req see (Count)
system.mem_ctrl.rdQLenPdf::21                       0                       # What read queue length does an incoming req see (Count)
system.mem_ctrl.rdQLenPdf::22                       0                       # What read queue length does an incoming req see (Count)
system.mem_ctrl.rdQLenPdf::23                       0                       # What read queue length does an incoming req see (Count)
system.mem_ctrl.rdQLenPdf::24                       0                       # What read queue length does an incoming req see (Count)
system.mem_ctrl.rdQLenPdf::25                       0                       # What read queue length does an incoming req see (Count)
system.mem_ctrl.rdQLenPdf::26                       0                       # What read queue length does an incoming req see (Count)
system.mem_ctrl.rdQLenPdf::27                       0                       # What read queue length does an incoming req see (Count)
system.mem_ctrl.rdQLenPdf::28                       0                       # What read queue length does an incoming req see (Count)
system.mem_ctrl.rdQLenPdf::29                       0                       # What read queue length does an incoming req see (Count)
system.mem_ctrl.rdQLenPdf::30                       0                       # What read queue length does an incoming req see (Count)
system.mem_ctrl.rdQLenPdf::31                       0                       # What read queue length does an incoming req see (Count)
system.mem_ctrl.wrQLenPdf::0                        1                       # What write queue length does an incoming req see (Count)
system.mem_ctrl.wrQLenPdf::1                        1                       # What write queue length does an incoming req see (Count)
system.mem_ctrl.wrQLenPdf::2                        1                       # What write queue length does an incoming req see (Count)
system.mem_ctrl.wrQLenPdf::3                        1                       # What write queue length does an incoming req see (Count)
system.mem_ctrl.wrQLenPdf::4                        1                       # What write queue length does an incoming req see (Count)
system.mem_ctrl.wrQLenPdf::5                        1                       # What write queue length does an incoming req see (Count)
system.mem_ctrl.wrQLenPdf::6                        1                       # What write queue length does an incoming req see (Count)
system.mem_ctrl.wrQLenPdf::7                        1                       # What write queue length does an incoming req see (Count)
system.mem_ctrl.wrQLenPdf::8                        1                       # What write queue length does an incoming req see (Count)
system.mem_ctrl.wrQLenPdf::9                        1                       # What write queue length does an incoming req see (Count)
system.mem_ctrl.wrQLenPdf::10                       1                       # What write queue length does an incoming req see (Count)
system.mem_ctrl.wrQLenPdf::11                       1                       # What write queue length does an incoming req see (Count)
system.mem_ctrl.wrQLenPdf::12                       1                       # What write queue length does an incoming req see (Count)
system.mem_ctrl.wrQLenPdf::13                       1                       # What write queue length does an incoming req see (Count)
system.mem_ctrl.wrQLenPdf::14                       1                       # What write queue length does an incoming req see (Count)
system.mem_ctrl.wrQLenPdf::15                   15096                       # What write queue length does an incoming req see (Count)
system.mem_ctrl.wrQLenPdf::16                   18757                       # What write queue length does an incoming req see (Count)
system.mem_ctrl.wrQLenPdf::17                   35049                       # What write queue length does an incoming req see (Count)
system.mem_ctrl.wrQLenPdf::18                   36560                       # What write queue length does an incoming req see (Count)
system.mem_ctrl.wrQLenPdf::19                   36915                       # What write queue length does an incoming req see (Count)
system.mem_ctrl.wrQLenPdf::20                   36825                       # What write queue length does an incoming req see (Count)
system.mem_ctrl.wrQLenPdf::21                   37948                       # What write queue length does an incoming req see (Count)
system.mem_ctrl.wrQLenPdf::22                   37570                       # What write queue length does an incoming req see (Count)
system.mem_ctrl.wrQLenPdf::23                   36712                       # What write queue length does an incoming req see (Count)
system.mem_ctrl.wrQLenPdf::24                   36637                       # What write queue length does an incoming req see (Count)
system.mem_ctrl.wrQLenPdf::25                   36580                       # What write queue length does an incoming req see (Count)
system.mem_ctrl.wrQLenPdf::26                   36559                       # What write queue length does an incoming req see (Count)
system.mem_ctrl.wrQLenPdf::27                   36530                       # What write queue length does an incoming req see (Count)
system.mem_ctrl.wrQLenPdf::28                   36514                       # What write queue length does an incoming req see (Count)
system.mem_ctrl.wrQLenPdf::29                   36512                       # What write queue length does an incoming req see (Count)
system.mem_ctrl.wrQLenPdf::30                   36511                       # What write queue length does an incoming req see (Count)
system.mem_ctrl.wrQLenPdf::31                   36510                       # What write queue length does an incoming req see (Count)
system.mem_ctrl.wrQLenPdf::32                   36510                       # What write queue length does an incoming req see (Count)
system.mem_ctrl.wrQLenPdf::33                      41                       # What write queue length does an incoming req see (Count)
system.mem_ctrl.wrQLenPdf::34                       1                       # What write queue length does an incoming req see (Count)
system.mem_ctrl.wrQLenPdf::35                       0                       # What write queue length does an incoming req see (Count)
system.mem_ctrl.wrQLenPdf::36                       0                       # What write queue length does an incoming req see (Count)
system.mem_ctrl.wrQLenPdf::37                       0                       # What write queue length does an incoming req see (Count)
system.mem_ctrl.wrQLenPdf::38                       0                       # What write queue length does an incoming req see (Count)
system.mem_ctrl.wrQLenPdf::39                       0                       # What write queue length does an incoming req see (Count)
system.mem_ctrl.wrQLenPdf::40                       0                       # What write queue length does an incoming req see (Count)
system.mem_ctrl.wrQLenPdf::41                       0                       # What write queue length does an incoming req see (Count)
system.mem_ctrl.wrQLenPdf::42                       0                       # What write queue length does an incoming req see (Count)
system.mem_ctrl.wrQLenPdf::43                       0                       # What write queue length does an incoming req see (Count)
[...]
system.mem_ctrl.dram.bytesWritten::total     39702528                       # Number of bytes written to this memory (Byte)
system.mem_ctrl.dram.numReads::cpu.inst          1623                       # Number of read requests responded to by this memory (Count)
system.mem_ctrl.dram.numReads::cpu.data        633971                       # Number of read requests responded to by this memory (Count)
system.mem_ctrl.dram.numReads::total           635594                       # Number of read requests responded to by this memory (Count)
system.mem_ctrl.dram.numWrites::writebacks       620352                       # Number of write requests responded to by this memory (Count)
system.mem_ctrl.dram.numWrites::total          620352                       # Number of write requests responded to by this memory (Count)
system.mem_ctrl.dram.bwRead::cpu.inst          655894                       # Total read bandwidth from this memory ((Byte/Second))
system.mem_ctrl.dram.bwRead::cpu.data       256203244                       # Total read bandwidth from this memory ((Byte/Second))
system.mem_ctrl.dram.bwRead::total          256859138                       # Total read bandwidth from this memory ((Byte/Second))
system.mem_ctrl.dram.bwInstRead::cpu.inst       655894                       # Instruction read bandwidth from this memory ((Byte/Second))
system.mem_ctrl.dram.bwInstRead::total         655894                       # Instruction read bandwidth from this memory ((Byte/Second))
system.mem_ctrl.dram.bwWrite::writebacks    250699472                       # Write bandwidth from this memory ((Byte/Second))
system.mem_ctrl.dram.bwWrite::total         250699472                       # Write bandwidth from this memory ((Byte/Second))
system.mem_ctrl.dram.bwTotal::writebacks    250699472                       # Total bandwidth to/from this memory ((Byte/Second))
system.mem_ctrl.dram.bwTotal::cpu.inst         655894                       # Total bandwidth to/from this memory ((Byte/Second))
system.mem_ctrl.dram.bwTotal::cpu.data      256203244                       # Total bandwidth to/from this memory ((Byte/Second))
system.mem_ctrl.dram.bwTotal::total         507558610                       # Total bandwidth to/from this memory ((Byte/Second))
system.mem_ctrl.dram.readBursts                635500                       # Number of DRAM read bursts (Count)
system.mem_ctrl.dram.writeBursts               620336                       # Number of DRAM write bursts (Count)
system.mem_ctrl.dram.perBankRdBursts::0         41771                       # Per bank write bursts (Count)
system.mem_ctrl.dram.perBankRdBursts::1         41523                       # Per bank write bursts (Count)
system.mem_ctrl.dram.perBankRdBursts::2         41822                       # Per bank write bursts (Count)
system.mem_ctrl.dram.perBankRdBursts::3         42251                       # Per bank write bursts (Count)
system.mem_ctrl.dram.perBankRdBursts::4         39844                       # Per bank write bursts (Count)
system.mem_ctrl.dram.perBankRdBursts::5         36837                       # Per bank write bursts (Count)
system.mem_ctrl.dram.perBankRdBursts::6         36915                       # Per bank write bursts (Count)
system.mem_ctrl.dram.perBankRdBursts::7         37244                       # Per bank write bursts (Count)
system.mem_ctrl.dram.perBankRdBursts::8         36986                       # Per bank write bursts (Count)
system.mem_ctrl.dram.perBankRdBursts::9         38021                       # Per bank write bursts (Count)
system.mem_ctrl.dram.perBankRdBursts::10        37442                       # Per bank write bursts (Count)
system.mem_ctrl.dram.perBankRdBursts::11        40089                       # Per bank write bursts (Count)
system.mem_ctrl.dram.perBankRdBursts::12        40531                       # Per bank write bursts (Count)
system.mem_ctrl.dram.perBankRdBursts::13        41071                       # Per bank write bursts (Count)
system.mem_ctrl.dram.perBankRdBursts::14        41565                       # Per bank write bursts (Count)
system.mem_ctrl.dram.perBankRdBursts::15        41588                       # Per bank write bursts (Count)
system.mem_ctrl.dram.perBankWrBursts::0         40610                       # Per bank write bursts (Count)
system.mem_ctrl.dram.perBankWrBursts::1         40697                       # Per bank write bursts (Count)
system.mem_ctrl.dram.perBankWrBursts::2         40985                       # Per bank write bursts (Count)
system.mem_ctrl.dram.perBankWrBursts::3         41313                       # Per bank write bursts (Count)
system.mem_ctrl.dram.perBankWrBursts::4         39027                       # Per bank write bursts (Count)
system.mem_ctrl.dram.perBankWrBursts::5         35958                       # Per bank write bursts (Count)
system.mem_ctrl.dram.perBankWrBursts::6         36021                       # Per bank write bursts (Count)
system.mem_ctrl.dram.perBankWrBursts::7         36479                       # Per bank write bursts (Count)
system.mem_ctrl.dram.perBankWrBursts::8         36183                       # Per bank write bursts (Count)
system.mem_ctrl.dram.perBankWrBursts::9         36817                       # Per bank write bursts (Count)
system.mem_ctrl.dram.perBankWrBursts::10        36182                       # Per bank write bursts (Count)
system.mem_ctrl.dram.perBankWrBursts::11        39237                       # Per bank write bursts (Count)
system.mem_ctrl.dram.perBankWrBursts::12        39866                       # Per bank write bursts (Count)
system.mem_ctrl.dram.perBankWrBursts::13        40062                       # Per bank write bursts (Count)
system.mem_ctrl.dram.perBankWrBursts::14        40244                       # Per bank write bursts (Count)
system.mem_ctrl.dram.perBankWrBursts::15        40655                       # Per bank write bursts (Count)
system.mem_ctrl.dram.totQLat               5887510000                       # Total ticks spent queuing (Tick)
system.mem_ctrl.dram.totBusLat             3177500000                       # Total ticks spent in databus transfers (Tick)
system.mem_ctrl.dram.totMemAccLat         17803135000                       # Total ticks spent from burst creation until serviced by the DRAM (Tick)
system.mem_ctrl.dram.avgQLat                  9264.37                       # Average queueing delay per DRAM burst ((Tick/Count))
system.mem_ctrl.dram.avgBusLat                5000.00                       # Average bus latency per DRAM burst ((Tick/Count))
system.mem_ctrl.dram.avgMemAccLat            28014.37                       # Average memory access latency per DRAM burst ((Tick/Count))
system.mem_ctrl.dram.readRowHits               554671                       # Number of row buffer hits during reads (Count)
system.mem_ctrl.dram.writeRowHits              309140                       # Number of row buffer hits during writes (Count)
system.mem_ctrl.dram.readRowHitRate             87.28                       # Row buffer hit rate for reads (Ratio)
system.mem_ctrl.dram.writeRowHitRate            49.83                       # Row buffer hit rate for writes (Ratio)
system.mem_ctrl.dram.bytesPerActivate::samples       392017                       # Bytes accessed per row activation (Byte)
system.mem_ctrl.dram.bytesPerActivate::mean   205.023925                       # Bytes accessed per row activation (Byte)
system.mem_ctrl.dram.bytesPerActivate::gmean   135.582392                       # Bytes accessed per row activation (Byte)
system.mem_ctrl.dram.bytesPerActivate::stdev   234.341532                       # Bytes accessed per row activation (Byte)
system.mem_ctrl.dram.bytesPerActivate::0-127       169251     43.17%     43.17% # Bytes accessed per row activation (Byte)
system.mem_ctrl.dram.bytesPerActivate::128-255       127338     32.48%     75.66% # Bytes accessed per row activation (Byte)
system.mem_ctrl.dram.bytesPerActivate::256-383        39106      9.98%     85.63% # Bytes accessed per row activation (Byte)
system.mem_ctrl.dram.bytesPerActivate::384-511        16335      4.17%     89.80% # Bytes accessed per row activation (Byte)
system.mem_ctrl.dram.bytesPerActivate::512-639         8806      2.25%     92.05% # Bytes accessed per row activation (Byte)
system.mem_ctrl.dram.bytesPerActivate::640-767         5528      1.41%     93.46% # Bytes accessed per row activation (Byte)
system.mem_ctrl.dram.bytesPerActivate::768-895         5415      1.38%     94.84% # Bytes accessed per row activation (Byte)
system.mem_ctrl.dram.bytesPerActivate::896-1023         6874      1.75%     96.59% # Bytes accessed per row activation (Byte)
system.mem_ctrl.dram.bytesPerActivate::1024-1151        13364      3.41%    100.00% # Bytes accessed per row activation (Byte)
system.mem_ctrl.dram.bytesPerActivate::total       392017                       # Bytes accessed per row activation (Byte)
system.mem_ctrl.dram.bytesRead               40672000                       # Total bytes read (Byte)
system.mem_ctrl.dram.bytesWritten            39701504                       # Total bytes written (Byte)
system.mem_ctrl.dram.avgRdBW               256.821150                       # Average DRAM read bandwidth in MiBytes/s ((Byte/Second))
system.mem_ctrl.dram.avgWrBW               250.693006                       # Average DRAM write bandwidth in MiBytes/s ((Byte/Second))
system.mem_ctrl.dram.peakBW                  12800.00                       # Theoretical peak bandwidth in MiByte/s ((Byte/Second))
system.mem_ctrl.dram.busUtil                     3.96                       # Data bus utilization in percentage (Ratio)
system.mem_ctrl.dram.busUtilRead                 2.01                       # Data bus utilization in percentage for reads (Ratio)
system.mem_ctrl.dram.busUtilWrite                1.96                       # Data bus utilization in percentage for writes (Ratio)
system.mem_ctrl.dram.pageHitRate                68.78                       # Row buffer hit rate, read and write combined (Ratio)
system.mem_ctrl.dram.power_state.pwrStateResidencyTicks::UNDEFINED 158367019000                       # Cumulative time (in ticks) in various power states (Tick)
system.mem_ctrl.dram.rank0.actEnergy       1402281720                       # Energy for activate commands per rank (pJ) (Joule)
system.mem_ctrl.dram.rank0.preEnergy        745311435                       # Energy for precharge commands per rank (pJ) (Joule)
system.mem_ctrl.dram.rank0.readEnergy      2271997980                       # Energy for read commands per rank (pJ) (Joule)
system.mem_ctrl.dram.rank0.writeEnergy     1623889800                       # Energy for write commands per rank (pJ) (Joule)
system.mem_ctrl.dram.rank0.refreshEnergy 12501162960.000002                       # Energy for refresh commands per rank (pJ) (Joule)
system.mem_ctrl.dram.rank0.actBackEnergy  52000372680                       # Energy for active background per rank (pJ) (Joule)
system.mem_ctrl.dram.rank0.preBackEnergy  17023148160                       # Energy for precharge background per rank (pJ) (Joule)
system.mem_ctrl.dram.rank0.actPowerDownEnergy            0                       # Energy for active power-down per rank (pJ) (Joule)
system.mem_ctrl.dram.rank0.prePowerDownEnergy            0                       # Energy for precharge power-down per rank (pJ) (Joule)
system.mem_ctrl.dram.rank0.selfRefreshEnergy            0                       # Energy for self refresh per rank (pJ) (Joule)
system.mem_ctrl.dram.rank0.totalEnergy    87568164735                       # Total energy per rank (pJ) (Joule)
system.mem_ctrl.dram.rank0.averagePower    552.944453                       # Core power per rank (mW) (Watt)
system.mem_ctrl.dram.rank0.totalIdleTime            0                       # Total Idle time Per DRAM Rank (Tick)
system.mem_ctrl.dram.rank0.pwrStateTime::IDLE  43633009000                       # Time in different power states (Tick)
system.mem_ctrl.dram.rank0.pwrStateTime::REF   5288140000                       # Time in different power states (Tick)
system.mem_ctrl.dram.rank0.pwrStateTime::SREF            0                       # Time in different power states (Tick)
system.mem_ctrl.dram.rank0.pwrStateTime::PRE_PDN            0                       # Time in different power states (Tick)
system.mem_ctrl.dram.rank0.pwrStateTime::ACT 109445870000                       # Time in different power states (Tick)
system.mem_ctrl.dram.rank0.pwrStateTime::ACT_PDN            0                       # Time in different power states (Tick)
system.mem_ctrl.dram.rank1.actEnergy       1396776780                       # Energy for activate commands per rank (pJ) (Joule)
system.mem_ctrl.dram.rank1.preEnergy        742393080                       # Energy for precharge commands per rank (pJ) (Joule)
system.mem_ctrl.dram.rank1.readEnergy      2265472020                       # Energy for read commands per rank (pJ) (Joule)
system.mem_ctrl.dram.rank1.writeEnergy     1614264120                       # Energy for write commands per rank (pJ) (Joule)
system.mem_ctrl.dram.rank1.refreshEnergy 12501162960.000002                       # Energy for refresh commands per rank (pJ) (Joule)
system.mem_ctrl.dram.rank1.actBackEnergy  52012416210                       # Energy for active background per rank (pJ) (Joule)
system.mem_ctrl.dram.rank1.preBackEnergy  17013006240                       # Energy for precharge background per rank (pJ) (Joule)
system.mem_ctrl.dram.rank1.actPowerDownEnergy            0                       # Energy for active power-down per rank (pJ) (Joule)
system.mem_ctrl.dram.rank1.prePowerDownEnergy            0                       # Energy for precharge power-down per rank (pJ) (Joule)
system.mem_ctrl.dram.rank1.selfRefreshEnergy            0                       # Energy for self refresh per rank (pJ) (Joule)
system.mem_ctrl.dram.rank1.totalEnergy    87545491410                       # Total energy per rank (pJ) (Joule)
system.mem_ctrl.dram.rank1.averagePower    552.801284                       # Core power per rank (mW) (Watt)
system.mem_ctrl.dram.rank1.totalIdleTime            0                       # Total Idle time Per DRAM Rank (Tick)
system.mem_ctrl.dram.rank1.pwrStateTime::IDLE  43606064000                       # Time in different power states (Tick)
system.mem_ctrl.dram.rank1.pwrStateTime::REF   5288140000                       # Time in different power states (Tick)
system.mem_ctrl.dram.rank1.pwrStateTime::SREF            0                       # Time in different power states (Tick)
system.mem_ctrl.dram.rank1.pwrStateTime::PRE_PDN            0                       # Time in different power states (Tick)
system.mem_ctrl.dram.rank1.pwrStateTime::ACT 109472815000                       # Time in different power states (Tick)
system.mem_ctrl.dram.rank1.pwrStateTime::ACT_PDN            0                       # Time in different power states (Tick)
system.mem_ctrl.power_state.pwrStateResidencyTicks::UNDEFINED 158367019000                       # Cumulative time (in ticks) in various power states (Tick)
system.membus.transDist::ReadResp               11750                       # Transaction distribution (Count)
system.membus.transDist::WritebackDirty        620352                       # Transaction distribution (Count)
system.membus.transDist::CleanEvict             10821                       # Transaction distribution (Count)
system.membus.transDist::ReadExReq             623844                       # Transaction distribution (Count)
system.membus.transDist::ReadExResp            623844                       # Transaction distribution (Count)
system.membus.transDist::ReadSharedReq          11750                       # Transaction distribution (Count)
system.membus.pktCount_system.l2cache.mem_side_port::system.mem_ctrl.port      1902361                       # Packet count per connected requestor and responder (Count)
system.membus.pktCount_system.l2cache.mem_side_port::total      1902361                       # Packet count per connected requestor and responder (Count)
system.membus.pktCount::total                 1902361                       # Packet count per connected requestor and responder (Count)
system.membus.pktSize_system.l2cache.mem_side_port::system.mem_ctrl.port     80380544                       # Cumulative packet size per connected requestor and responder (Byte)
system.membus.pktSize_system.l2cache.mem_side_port::total     80380544                       # Cumulative packet size per connected requestor and responder (Byte)
system.membus.pktSize::total                 80380544                       # Cumulative packet size per connected requestor and responder (Byte)
system.membus.snoops                                0                       # Total snoops (Count)
system.membus.snoopTraffic                          0                       # Total snoop traffic (Byte)
system.membus.snoopFanout::samples             635594                       # Request fanout histogram (Count)
system.membus.snoopFanout::mean                     0                       # Request fanout histogram (Count)
system.membus.snoopFanout::stdev                    0                       # Request fanout histogram (Count)
system.membus.snoopFanout::underflows               0      0.00%      0.00% # Request fanout histogram (Count)
system.membus.snoopFanout::0                   635594    100.00%    100.00% # Request fanout histogram (Count)
system.membus.snoopFanout::1                        0      0.00%    100.00% # Request fanout histogram (Count)
system.membus.snoopFanout::overflows                0      0.00%    100.00% # Request fanout histogram (Count)
system.membus.snoopFanout::min_value                0                       # Request fanout histogram (Count)
system.membus.snoopFanout::max_value                0                       # Request fanout histogram (Count)
system.membus.snoopFanout::total               635594                       # Request fanout histogram (Count)
system.membus.power_state.pwrStateResidencyTicks::UNDEFINED 158367019000                       # Cumulative time (in ticks) in various power states (Tick)
system.membus.reqLayer2.occupancy          3748175000                       # Layer occupancy (ticks) (Tick)
system.membus.reqLayer2.utilization               0.0                       # Layer utilization (Ratio)
system.membus.respLayer0.occupancy         3354901000                       # Layer occupancy (ticks) (Tick)
system.membus.respLayer0.utilization              0.0                       # Layer utilization (Ratio)
system.membus.snoop_filter.totRequests        1266767                       # Total number of requests made to the snoop filter. (Count)
system.membus.snoop_filter.hitSingleRequests       631245                       # Number of requests hitting in the snoop filter with a single holder of the requested data. (Count)
system.membus.snoop_filter.hitMultiRequests            0                       # Number of requests hitting in the snoop filter with multiple (>1) holders of the requested data. (Count)
system.membus.snoop_filter.totSnoops                0                       # Total number of snoops made to the snoop filter. (Count)
system.membus.snoop_filter.hitSingleSnoops            0                       # Number of snoops hitting in the snoop filter with a single holder of the requested data. (Count)
system.membus.snoop_filter.hitMultiSnoops            0                       # Number of snoops hitting in the snoop filter with multiple (>1) holders of the requested data. (Count)
system.workload.inst.arm                            0                       # number of arm instructions executed (Count)
system.workload.inst.quiesce                        0                       # number of quiesce instructions executed (Count)

---------- End Simulation Statistics   ----------
