
---------- Begin Simulation Statistics ----------
simSeconds                                   0.151722                       # Number of seconds simulated (Second)
simTicks                                 151722030000                       # Number of ticks simulated (Tick)
finalTick                                151722030000                       # Number of ticks from beginning of simulation (restored from checkpoints and never reset) (Tick)
simFreq                                  1000000000000                       # The number of ticks per simulated second ((Tick/Second))
hostSeconds                                    261.80                       # Real time elapsed on the host (Second)
hostTickRate                                579533790                       # The number of ticks simulated per host second (ticks/s) ((Tick/Second))
hostMemory                                     736112                       # Number of bytes of host memory used (Byte)
simInsts                                     25399392                       # Number of instructions simulated (Count)
simOps                                       43904756                       # Number of ops (including micro ops) simulated (Count)
hostInstRate                                    97018                       # Simulator instruction rate (inst/s) ((Count/Second))
hostOpRate                                     167703                       # Simulator op (including micro ops) rate (op/s) ((Count/Second))
system.clk_domain.clock                          1000                       # Clock period in ticks (Tick)
system.clk_domain.voltage_domain.voltage            1                       # Voltage in Volts (Volt)
system.cpu.numCycles                        151722030                       # Number of cpu cycles simulated (Cycle)
system.cpu.numWorkItemsStarted                      0                       # Number of work items this cpu started (Count)
system.cpu.numWorkItemsCompleted                    0                       # Number of work items this cpu completed (Count)
system.cpu.dcache.demandHits::cpu.data       16948778                       # number of demand (read+write) hits (Count)
system.cpu.dcache.demandHits::total          16948778                       # number of demand (read+write) hits (Count)
system.cpu.dcache.overallHits::cpu.data      16948778                       # number of overall hits (Count)
system.cpu.dcache.overallHits::total         16948778                       # number of overall hits (Count)
system.cpu.dcache.demandMisses::cpu.data       696242                       # number of demand (read+write) misses (Count)
system.cpu.dcache.demandMisses::total          696242                       # number of demand (read+write) misses (Count)
system.cpu.dcache.overallMisses::cpu.data       696242                       # number of overall misses (Count)
system.cpu.dcache.overallMisses::total         696242                       # number of overall misses (Count)
system.cpu.dcache.demandMissLatency::cpu.data  61148142000                       # number of demand (read+write) miss ticks (Tick)
system.cpu.dcache.demandMissLatency::total  61148142000                       # number of demand (read+write) miss ticks (Tick)
system.cpu.dcache.overallMissLatency::cpu.data  61148142000                       # number of overall miss ticks (Tick)
system.cpu.dcache.overallMissLatency::total  61148142000                       # number of overall miss ticks (Tick)
system.cpu.dcache.demandAccesses::cpu.data     17645020                       # number of demand (read+write) accesses (Count)
system.cpu.dcache.demandAccesses::total      17645020                       # number of demand (read+write) accesses (Count)
system.cpu.dcache.overallAccesses::cpu.data     17645020                       # number of overall (read+write) accesses (Count)
system.cpu.dcache.overallAccesses::total     17645020                       # number of overall (read+write) accesses (Count)
system.cpu.dcache.demandMissRate::cpu.data     0.039458                       # miss rate for demand accesses (Ratio)
system.cpu.dcache.demandMissRate::total      0.039458                       # miss rate for demand accesses (Ratio)
system.cpu.dcache.overallMissRate::cpu.data     0.039458                       # miss rate for overall accesses (Ratio)
system.cpu.dcache.overallMissRate::total     0.039458                       # miss rate for overall accesses (Ratio)
system.cpu.dcache.demandAvgMissLatency::cpu.data 87825.988665                       # average overall miss latency in ticks ((Tick/Count))
system.cpu.dcache.demandAvgMissLatency::total 87825.988665                       # average overall miss latency in ticks ((Tick/Count))
system.cpu.dcache.overallAvgMissLatency::cpu.data 87825.988665                       # average overall miss latency ((Tick/Count))
system.cpu.dcache.overallAvgMissLatency::total 87825.988665                       # average overall miss latency ((Tick/Count))
system.cpu.dcache.blockedCycles::no_mshrs            0                       # number of cycles access was blocked (Cycle)
system.cpu.dcache.blockedCycles::no_targets            0                       # number of cycles access was blocked (Cycle)
system.cpu.dcache.blockedCauses::no_mshrs            0                       # number of times access was blocked (Count)
system.cpu.dcache.blockedCauses::no_targets            0                       # number of times access was blocked (Count)
system.cpu.dcache.avgBlocked::no_mshrs            nan                       # average number of cycles each access was blocked ((Cycle/Count))
system.cpu.dcache.avgBlocked::no_targets          nan                       # average number of cycles each access was blocked ((Cycle/Count))
system.cpu.dcache.writebacks::writebacks       681122                       # number of writebacks (Count)
system.cpu.dcache.writebacks::total            681122                       # number of writebacks (Count)
system.cpu.dcache.demandMshrMisses::cpu.data       696242                       # number of demand (read+write) MSHR misses (Count)
system.cpu.dcache.demandMshrMisses::total       696242                       # number of demand (read+write) MSHR misses (Count)
system.cpu.dcache.overallMshrMisses::cpu.data       696242                       # number of overall MSHR misses (Count)
system.cpu.dcache.overallMshrMisses::total       696242                       # number of overall MSHR misses (Count)
system.cpu.dcache.demandMshrMissLatency::cpu.data  59755658000                       # number of demand (read+write) MSHR miss ticks (Tick)
system.cpu.dcache.demandMshrMissLatency::total  59755658000                       # number of demand (read+write) MSHR miss ticks (Tick)
system.cpu.dcache.overallMshrMissLatency::cpu.data  59755658000                       # number of overall MSHR miss ticks (Tick)
system.cpu.dcache.overallMshrMissLatency::total  59755658000                       # number of overall MSHR miss ticks (Tick)
system.cpu.dcache.demandMshrMissRate::cpu.data     0.039458                       # mshr miss ratio for demand accesses (Ratio)
system.cpu.dcache.demandMshrMissRate::total     0.039458                       # mshr miss ratio for demand accesses (Ratio)
system.cpu.dcache.overallMshrMissRate::cpu.data     0.039458                       # mshr miss ratio for overall accesses (Ratio)
system.cpu.dcache.overallMshrMissRate::total     0.039458                       # mshr miss ratio for overall accesses (Ratio)
system.cpu.dcache.demandAvgMshrMissLatency::cpu.data 85825.988665                       # average overall mshr miss latency ((Tick/Count))
system.cpu.dcache.demandAvgMshrMissLatency::total 85825.988665                       # average overall mshr miss latency ((Tick/Count))
system.cpu.dcache.overallAvgMshrMissLatency::cpu.data 85825.988665                       # average overall mshr miss latency ((Tick/Count))
system.cpu.dcache.overallAvgMshrMissLatency::total 85825.988665                       # average overall mshr miss latency ((Tick/Count))
system.cpu.dcache.replacements                 695218                       # number of replacements (Count)
system.cpu.dcache.LockedRMWReadReq.hits::cpu.data            6                       # number of LockedRMWReadReq hits (Count)
system.cpu.dcache.LockedRMWReadReq.hits::total            6                       # number of LockedRMWReadReq hits (Count)
system.cpu.dcache.LockedRMWReadReq.accesses::cpu.data            6                       # number of LockedRMWReadReq accesses(hits+misses) (Count)
system.cpu.dcache.LockedRMWReadReq.accesses::total            6                       # number of LockedRMWReadReq accesses(hits+misses) (Count)
system.cpu.dcache.LockedRMWReadReq.mshrMissLatency::cpu.data        12000                       # number of LockedRMWReadReq MSHR miss ticks (Tick)
system.cpu.dcache.LockedRMWReadReq.mshrMissLatency::total        12000                       # number of LockedRMWReadReq MSHR miss ticks (Tick)
system.cpu.dcache.LockedRMWReadReq.avgMshrMissLatency::cpu.data          inf                       # average LockedRMWReadReq mshr miss latency ((Tick/Count))
system.cpu.dcache.LockedRMWReadReq.avgMshrMissLatency::total          inf                       # average LockedRMWReadReq mshr miss latency ((Tick/Count))
system.cpu.dcache.LockedRMWWriteReq.hits::cpu.data            6                       # number of LockedRMWWriteReq hits (Count)
system.cpu.dcache.LockedRMWWriteReq.hits::total            6                       # number of LockedRMWWriteReq hits (Count)
system.cpu.dcache.LockedRMWWriteReq.accesses::cpu.data            6                       # number of LockedRMWWriteReq accesses(hits+misses) (Count)
system.cpu.dcache.LockedRMWWriteReq.accesses::total            6                       # number of LockedRMWWriteReq accesses(hits+misses) (Count)
system.cpu.dcache.ReadReq.hits::cpu.data     13211440                       # number of ReadReq hits (Count)
system.cpu.dcache.ReadReq.hits::total        13211440                       # number of ReadReq hits (Count)
system.cpu.dcache.ReadReq.misses::cpu.data        17420                       # number of ReadReq misses (Count)
system.cpu.dcache.ReadReq.misses::total         17420                       # number of ReadReq misses (Count)
system.cpu.dcache.ReadReq.missLatency::cpu.data   1528055000                       # number of ReadReq miss ticks (Tick)
system.cpu.dcache.ReadReq.missLatency::total   1528055000                       # number of ReadReq miss ticks (Tick)
system.cpu.dcache.ReadReq.accesses::cpu.data     13228860                       # number of ReadReq accesses(hits+misses) (Count)
system.cpu.dcache.ReadReq.accesses::total     13228860                       # number of ReadReq accesses(hits+misses) (Count)
system.cpu.dcache.ReadReq.missRate::cpu.data     0.001317                       # miss rate for ReadReq accesses (Ratio)
system.cpu.dcache.ReadReq.missRate::total     0.001317                       # miss rate for ReadReq accesses (Ratio)
system.cpu.dcache.ReadReq.avgMissLatency::cpu.data 87718.427095                       # average ReadReq miss latency ((Tick/Count))
system.cpu.dcache.ReadReq.avgMissLatency::total 87718.427095                       # average ReadReq miss latency ((Tick/Count))
system.cpu.dcache.ReadReq.mshrMisses::cpu.data        17420                       # number of ReadReq MSHR misses (Count)
system.cpu.dcache.ReadReq.mshrMisses::total        17420                       # number of ReadReq MSHR misses (Count)
system.cpu.dcache.ReadReq.mshrMissLatency::cpu.data   1493215000                       # number of ReadReq MSHR miss ticks (Tick)
system.cpu.dcache.ReadReq.mshrMissLatency::total   1493215000                       # number of ReadReq MSHR miss ticks (Tick)
system.cpu.dcache.ReadReq.mshrMissRate::cpu.data     0.001317                       # mshr miss rate for ReadReq accesses (Ratio)
system.cpu.dcache.ReadReq.mshrMissRate::total     0.001317                       # mshr miss rate for ReadReq accesses (Ratio)
system.cpu.dcache.ReadReq.avgMshrMissLatency::cpu.data 85718.427095                       # average ReadReq mshr miss latency ((Tick/Count))
system.cpu.dcache.ReadReq.avgMshrMissLatency::total 85718.427095                       # average ReadReq mshr miss latency ((Tick/Count))
system.cpu.dcache.WriteReq.hits::cpu.data      3737338                       # number of WriteReq hits (Count)
system.cpu.dcache.WriteReq.hits::total        3737338                       # number of WriteReq hits (Count)
system.cpu.dcache.WriteReq.misses::cpu.data       678822                       # number of WriteReq misses (Count)
system.cpu.dcache.WriteReq.misses::total       678822                       # number of WriteReq misses (Count)
system.cpu.dcache.WriteReq.missLatency::cpu.data  59620087000                       # number of WriteReq miss ticks (Tick)
system.cpu.dcache.WriteReq.missLatency::total  59620087000                       # number of WriteReq miss ticks (Tick)
system.cpu.dcache.WriteReq.accesses::cpu.data      4416160                       # number of WriteReq accesses(hits+misses) (Count)
system.cpu.dcache.WriteReq.accesses::total      4416160                       # number of WriteReq accesses(hits+misses) (Count)
system.cpu.dcache.WriteReq.missRate::cpu.data     0.153713                       # miss rate for WriteReq accesses (Ratio)
system.cpu.dcache.WriteReq.missRate::total     0.153713                       # miss rate for WriteReq accesses (Ratio)
system.cpu.dcache.WriteReq.avgMissLatency::cpu.data 87828.748921                       # average WriteReq miss latency ((Tick/Count))
system.cpu.dcache.WriteReq.avgMissLatency::total 87828.748921                       # average WriteReq miss latency ((Tick/Count))
system.cpu.dcache.WriteReq.mshrMisses::cpu.data       678822                       # number of WriteReq MSHR misses (Count)
system.cpu.dcache.WriteReq.mshrMisses::total       678822                       # number of WriteReq MSHR misses (Count)
system.cpu.dcache.WriteReq.mshrMissLatency::cpu.data  58262443000                       # number of WriteReq MSHR miss ticks (Tick)
system.cpu.dcache.WriteReq.mshrMissLatency::total  58262443000                       # number of WriteReq MSHR miss ticks (Tick)
system.cpu.dcache.WriteReq.mshrMissRate::cpu.data     0.153713                       # mshr miss rate for WriteReq accesses (Ratio)
system.cpu.dcache.WriteReq.mshrMissRate::total     0.153713                       # mshr miss rate for WriteReq accesses (Ratio)
system.cpu.dcache.WriteReq.avgMshrMissLatency::cpu.data 85828.748921                       # average WriteReq mshr miss latency ((Tick/Count))
system.cpu.dcache.WriteReq.avgMshrMissLatency::total 85828.748921                       # average WriteReq mshr miss latency ((Tick/Count))
system.cpu.dcache.power_state.pwrStateResidencyTicks::UNDEFINED 151722030000                       # Cumulative time (in ticks) in various power states (Tick)
system.cpu.dcache.tags.tagsInUse          1020.842279                       # Average ticks per tags in use ((Tick/Count))
system.cpu.dcache.tags.totalRefs             17645032                       # Total number of references to valid blocks. (Count)
system.cpu.dcache.tags.sampledRefs             696242                       # Sample count of references to valid blocks. (Count)
system.cpu.dcache.tags.avgRefs              25.343246                       # Average number of references to valid blocks. ((Count/Count))
system.cpu.dcache.tags.warmupTick              218000                       # The tick when the warmup percentage was hit. (Tick)
system.cpu.dcache.tags.occupancies::cpu.data  1020.842279                       # Average occupied blocks per tick, per requestor ((Count/Tick))
system.cpu.dcache.tags.avgOccs::cpu.data     0.996916                       # Average percentage of cache occupancy ((Ratio/Tick))
system.cpu.dcache.tags.avgOccs::total        0.996916                       # Average percentage of cache occupancy ((Ratio/Tick))
system.cpu.dcache.tags.occupanciesTaskId::1024         1024                       # Occupied blocks per task id (Count)
system.cpu.dcache.tags.ageTaskId_1024::0           27                       # Occupied blocks per task id, per block age (Count)
system.cpu.dcache.tags.ageTaskId_1024::1          252                       # Occupied blocks per task id, per block age (Count)
system.cpu.dcache.tags.ageTaskId_1024::2          233                       # Occupied blocks per task id, per block age (Count)
system.cpu.dcache.tags.ageTaskId_1024::3          512                       # Occupied blocks per task id, per block age (Count)
system.cpu.dcache.tags.ratioOccsTaskId::1024            1                       # Ratio of occupied blocks and all blocks, per task id (Ratio)
system.cpu.dcache.tags.tagAccesses           35986306                       # Number of tag accesses (Count)
system.cpu.dcache.tags.dataAccesses          35986306                       # Number of data accesses (Count)
system.cpu.dcache.tags.power_state.pwrStateResidencyTicks::UNDEFINED 151722030000                       # Cumulative time (in ticks) in various power states (Tick)
system.cpu.exec_context.thread_0.numInsts     25399392                       # Number of instructions committed (Count)
system.cpu.exec_context.thread_0.numOps      43904756                       # Number of ops (including micro ops) committed (Count)
system.cpu.exec_context.thread_0.numIntAluAccesses     43841044                       # Number of integer alu accesses (Count)
system.cpu.exec_context.thread_0.numFpAluAccesses        89485                       # Number of float alu accesses (Count)
system.cpu.exec_context.thread_0.numVecAluAccesses            0                       # Number of vector alu accesses (Count)
system.cpu.exec_context.thread_0.numCallsReturns        20942                       # Number of times a function call or return occured (Count)
system.cpu.exec_context.thread_0.numCondCtrlInsts      2428452                       # Number of instructions that are conditional controls (Count)
system.cpu.exec_context.thread_0.numIntInsts     43841044                       # Number of integer instructions (Count)
system.cpu.exec_context.thread_0.numFpInsts        89485                       # Number of float instructions (Count)
system.cpu.exec_context.thread_0.numVecInsts            0                       # Number of vector instructions (Count)
system.cpu.exec_context.thread_0.numIntRegReads     51742138                       # Number of times the integer registers were read (Count)
system.cpu.exec_context.thread_0.numIntRegWrites     32473211                       # Number of times the integer registers were written (Count)
system.cpu.exec_context.thread_0.numFpRegReads       122216                       # Number of times the floating registers were read (Count)
system.cpu.exec_context.thread_0.numFpRegWrites        65689                       # Number of times the floating registers were written (Count)
system.cpu.exec_context.thread_0.numVecRegReads            0                       # Number of times the vector registers were read (Count)
system.cpu.exec_context.thread_0.numVecRegWrites            0                       # Number of times the vector registers were written (Count)
system.cpu.exec_context.thread_0.numVecPredRegReads            0                       # Number of times the predicate registers were read (Count)
system.cpu.exec_context.thread_0.numVecPredRegWrites            0                       # Number of times the predicate registers were written (Count)
system.cpu.exec_context.thread_0.numCCRegReads     12832915                       # Number of times the CC registers were read (Count)
system.cpu.exec_context.thread_0.numCCRegWrites     14493306                       # Number of times the CC registers were written (Count)
system.cpu.exec_context.thread_0.numMiscRegReads     26815200                       # Number of times the Misc registers were read (Count)
system.cpu.exec_context.thread_0.numMiscRegWrites          693                       # Number of times the Misc registers were written (Count)
system.cpu.exec_context.thread_0.numMemRefs     17645476                       # Number of memory refs (Count)
system.cpu.exec_context.thread_0.numLoadInsts     13229043                       # Number of load instructions (Count)
system.cpu.exec_context.thread_0.numStoreInsts      4416433                       # Number of store instructions (Count)
system.cpu.exec_context.thread_0.numIdleCycles     0.001000                       # Number of idle cycles (Cycle)
system.cpu.exec_context.thread_0.numBusyCycles 151722029.999000                       # Number of busy cycles (Cycle)
system.cpu.exec_context.thread_0.notIdleFraction     1.000000                       # Percentage of non-idle cycles (Ratio)
system.cpu.exec_context.thread_0.idleFraction     0.000000                       # Percentage of idle cycles (Ratio)
system.cpu.exec_context.thread_0.numBranches      4592172                       # Number of branches fetched (Count)
system.cpu.exec_context.thread_0.statExecutedInstType::No_OpClass         8914      0.02%      0.02% # Class of executed instruction. (Count)
system.cpu.exec_context.thread_0.statExecutedInstType::IntAlu     26165517     59.60%     59.62% # Class of executed instruction. (Count)
system.cpu.exec_context.thread_0.statExecutedInstType::IntMult           27      0.00%     59.62% # Class of executed instruction. (Count)
system.cpu.exec_context.thread_0.statExecutedInstType::IntDiv        34601      0.08%     59.69% # Class of executed instruction. (Count)
system.cpu.exec_context.thread_0.statExecutedInstType::FloatAdd         3809      0.01%     59.70% # Class of executed instruction. (Count)
system.cpu.exec_context.thread_0.statExecutedInstType::FloatCmp            0      0.00%     59.70% # Class of executed instruction. (Count)
system.cpu.exec_context.thread_0.statExecutedInstType::FloatCvt         1232      0.00%     59.71% # Class of executed instruction. (Count)
system.cpu.exec_context.thread_0.statExecutedInstType::FloatMult            0      0.00%     59.71% # Class of executed instruction. (Count)
system.cpu.exec_context.thread_0.statExecutedInstType::FloatMultAcc            0      0.00%     59.71% # Class of executed instruction. (Count)
system.cpu.exec_context.thread_0.statExecutedInstType::FloatDiv            0      0.00%     59.71% # Class of executed instruction. (Count)
system.cpu.exec_context.thread_0.statExecutedInstType::FloatMisc            0      0.00%     59.71% # Class of executed instruction. (Count)
system.cpu.exec_context.thread_0.statExecutedInstType::FloatSqrt            0      0.00%     59.71% # Class of executed instruction. (Count)
system.cpu.exec_context.thread_0.statExecutedInstType::SimdAdd         6044      0.01%     59.72% # Class of executed instruction. (Count)
system.cpu.exec_context.thread_0.statExecutedInstType::SimdAddAcc            0      0.00%     59.72% # Class of executed instruction. (Count)
system.cpu.exec_context.thread_0.statExecutedInstType::SimdAlu        13927      0.03%     59.75% # Class of executed instruction. (Count)
system.cpu.exec_context.thread_0.statExecutedInstType::SimdCmp            0      0.00%     59.75% # Class of executed instruction. (Count)
system.cpu.exec_context.thread_0.statExecutedInstType::SimdCvt        11772      0.03%     59.78% # Class of executed instruction. (Count)
system.cpu.exec_context.thread_0.statExecutedInstType::SimdMisc         6889      0.02%     59.79% # Class of executed instruction. (Count)
system.cpu.exec_context.thread_0.statExecutedInstType::SimdMult            0      0.00%     59.79% # Class of executed instruction. (Count)
system.cpu.exec_context.thread_0.statExecutedInstType::SimdMultAcc            0      0.00%     59.79% # Class of executed instruction. (Count)
system.cpu.exec_context.thread_0.statExecutedInstType::SimdShift          913      0.00%     59.80% # Class of executed instruction. (Count)
system.cpu.exec_context.thread_0.statExecutedInstType::SimdShiftAcc            0      0.00%     59.80% # Class of executed instruction. (Count)
system.cpu.exec_context.thread_0.statExecutedInstType::SimdDiv            0      0.00%     59.80% # Class of executed instruction. (Count)
system.cpu.exec_context.thread_0.statExecutedInstType::SimdSqrt            0      0.00%     59.80% # Class of executed instruction. (Count)
system.cpu.exec_context.thread_0.statExecutedInstType::SimdFloatAdd            0      0.00%     59.80% # Class of executed instruction. (Count)
system.cpu.exec_context.thread_0.statExecutedInstType::SimdFloatAlu            0      0.00%     59.80% # Class of executed instruction. (Count)
system.cpu.exec_context.thread_0.statExecutedInstType::SimdFloatCmp            0      0.00%     59.80% # Class of executed instruction. (Count)
system.cpu.exec_context.thread_0.statExecutedInstType::SimdFloatCvt         5004      0.01%     59.81% # Class of executed instruction. (Count)
system.cpu.exec_context.thread_0.statExecutedInstType::SimdFloatDiv            0      0.00%     59.81% # Class of executed instruction. (Count)
system.cpu.exec_context.thread_0.statExecutedInstType::SimdFloatMisc            0      0.00%     59.81% # Class of executed instruction. (Count)
system.cpu.exec_context.thread_0.statExecutedInstType::SimdFloatMult          168      0.00%     59.81% # Class of executed instruction. (Count)
system.cpu.exec_context.thread_0.statExecutedInstType::SimdFloatMultAcc            0      0.00%     59.81% # Class of executed instruction. (Count)
system.cpu.exec_context.thread_0.statExecutedInstType::SimdFloatSqrt          999      0.00%     59.81% # Class of executed instruction. (Count)
system.cpu.exec_context.thread_0.statExecutedInstType::SimdReduceAdd            0      0.00%     59.81% # Class of executed instruction. (Count)
system.cpu.exec_context.thread_0.statExecutedInstType::SimdReduceAlu            0      0.00%     59.81% # Class of executed instruction. (Count)
system.cpu.exec_context.thread_0.statExecutedInstType::SimdReduceCmp            0      0.00%     59.81% # Class of executed instruction. (Count)
system.cpu.exec_context.thread_0.statExecutedInstType::SimdFloatReduceAdd            0      0.00%     59.81% # Class of executed instruction. (Count)
system.cpu.exec_context.thread_0.statExecutedInstType::SimdFloatReduceCmp            0      0.00%     59.81% # Class of executed instruction. (Count)
system.cpu.exec_context.thread_0.statExecutedInstType::SimdAes            0      0.00%     59.81% # Class of executed instruction. (Count)
system.cpu.exec_context.thread_0.statExecutedInstType::SimdAesMix            0      0.00%     59.81% # Class of executed instruction. (Count)
system.cpu.exec_context.thread_0.statExecutedInstType::SimdSha1Hash            0      0.00%     59.81% # Class of executed instruction. (Count)
system.cpu.exec_context.thread_0.statExecutedInstType::SimdSha1Hash2            0      0.00%     59.81% # Class of executed instruction. (Count)
system.cpu.exec_context.thread_0.statExecutedInstType::SimdSha256Hash            0      0.00%     59.81% # Class of executed instruction. (Count)
system.cpu.exec_context.thread_0.statExecutedInstType::SimdSha256Hash2            0      0.00%     59.81% # Class of executed instruction. (Count)
system.cpu.exec_context.thread_0.statExecutedInstType::SimdShaSigma2            0      0.00%     59.81% # Class of executed instruction. (Count)
system.cpu.exec_context.thread_0.statExecutedInstType::SimdShaSigma3            0      0.00%     59.81% # Class of executed instruction. (Count)
system.cpu.exec_context.thread_0.statExecutedInstType::SimdPredAlu            0      0.00%     59.81% # Class of executed instruction. (Count)
system.cpu.exec_context.thread_0.statExecutedInstType::MemRead     13206023     30.08%     89.89% # Class of executed instruction. (Count)
system.cpu.exec_context.thread_0.statExecutedInstType::MemWrite      4403054     10.03%     99.92% # Class of executed instruction. (Count)
system.cpu.exec_context.thread_0.statExecutedInstType::FloatMemRead        23020      0.05%     99.97% # Class of executed instruction. (Count)
system.cpu.exec_context.thread_0.statExecutedInstType::FloatMemWrite        13379      0.03%    100.00% # Class of executed instruction. (Count)
system.cpu.exec_context.thread_0.statExecutedInstType::IprAccess            0      0.00%    100.00% # Class of executed instruction. (Count)
system.cpu.exec_context.thread_0.statExecutedInstType::InstPrefetch            0      0.00%    100.00% # Class of executed instruction. (Count)
system.cpu.exec_context.thread_0.statExecutedInstType::total     43905292                       # Class of executed instruction. (Count)
system.cpu.icache.demandHits::cpu.inst       28203016                       # number of demand (read+write) hits (Count)
system.cpu.icache.demandHits::total          28203016                       # number of demand (read+write) hits (Count)
system.cpu.icache.overallHits::cpu.inst      28203016                       # number of overall hits (Count)
system.cpu.icache.overallHits::total         28203016                       # number of overall hits (Count)
system.cpu.icache.demandMisses::cpu.inst         4285                       # number of demand (read+write) misses (Count)
system.cpu.icache.demandMisses::total            4285                       # number of demand (read+write) misses (Count)
system.cpu.icache.overallMisses::cpu.inst         4285                       # number of overall misses (Count)
system.cpu.icache.overallMisses::total           4285                       # number of overall misses (Count)
system.cpu.icache.demandMissLatency::cpu.inst    270322000                       # number of demand (read+write) miss ticks (Tick)
system.cpu.icache.demandMissLatency::total    270322000                       # number of demand (read+write) miss ticks (Tick)
system.cpu.icache.overallMissLatency::cpu.inst    270322000                       # number of overall miss ticks (Tick)
system.cpu.icache.overallMissLatency::total    270322000                       # number of overall miss ticks (Tick)
system.cpu.icache.demandAccesses::cpu.inst     28207301                       # number of demand (read+write) accesses (Count)
system.cpu.icache.demandAccesses::total      28207301                       # number of demand (read+write) accesses (Count)
system.cpu.icache.overallAccesses::cpu.inst     28207301                       # number of overall (read+write) accesses (Count)
system.cpu.icache.overallAccesses::total     28207301                       # number of overall (read+write) accesses (Count)
system.cpu.icache.demandMissRate::cpu.inst     0.000152                       # miss rate for demand accesses (Ratio)
system.cpu.icache.demandMissRate::total      0.000152                       # miss rate for demand accesses (Ratio)
system.cpu.icache.overallMissRate::cpu.inst     0.000152                       # miss rate for overall accesses (Ratio)
system.cpu.icache.overallMissRate::total     0.000152                       # miss rate for overall accesses (Ratio)
system.cpu.icache.demandAvgMissLatency::cpu.inst 63085.647608                       # average overall miss latency in ticks ((Tick/Count))
system.cpu.icache.demandAvgMissLatency::total 63085.647608                       # average overall miss latency in ticks ((Tick/Count))
system.cpu.icache.overallAvgMissLatency::cpu.inst 63085.647608                       # average overall miss latency ((Tick/Count))
system.cpu.icache.overallAvgMissLatency::total 63085.647608                       # average overall miss latency ((Tick/Count))
system.cpu.icache.blockedCycles::no_mshrs            0                       # number of cycles access was blocked (Cycle)
system.cpu.icache.blockedCycles::no_targets            0                       # number of cycles access was blocked (Cycle)
system.cpu.icache.blockedCauses::no_mshrs            0                       # number of times access was blocked (Count)
system.cpu.icache.blockedCauses::no_targets            0                       # number of times access was blocked (Count)
system.cpu.icache.avgBlocked::no_mshrs            nan                       # average number of cycles each access was blocked ((Cycle/Count))
system.cpu.icache.avgBlocked::no_targets          nan                       # average number of cycles each access was blocked ((Cycle/Count))
system.cpu.icache.demandMshrMisses::cpu.inst         4285                       # number of demand (read+write) MSHR misses (Count)
system.cpu.icache.demandMshrMisses::total         4285                       # number of demand (read+write) MSHR misses (Count)
system.cpu.icache.overallMshrMisses::cpu.inst         4285                       # number of overall MSHR misses (Count)
system.cpu.icache.overallMshrMisses::total         4285                       # number of overall MSHR misses (Count)
system.cpu.icache.demandMshrMissLatency::cpu.inst    261752000                       # number of demand (read+write) MSHR miss ticks (Tick)
system.cpu.icache.demandMshrMissLatency::total    261752000                       # number of demand (read+write) MSHR miss ticks (Tick)
system.cpu.icache.overallMshrMissLatency::cpu.inst    261752000                       # number of overall MSHR miss ticks (Tick)
system.cpu.icache.overallMshrMissLatency::total    261752000                       # number of overall MSHR miss ticks (Tick)
system.cpu.icache.demandMshrMissRate::cpu.inst     0.000152                       # mshr miss ratio for demand accesses (Ratio)
system.cpu.icache.demandMshrMissRate::total     0.000152                       # mshr miss ratio for demand accesses (Ratio)
system.cpu.icache.overallMshrMissRate::cpu.inst     0.000152                       # mshr miss ratio for overall accesses (Ratio)
system.cpu.icache.overallMshrMissRate::total     0.000152                       # mshr miss ratio for overall accesses (Ratio)
system.cpu.icache.demandAvgMshrMissLatency::cpu.inst 61085.647608                       # average overall mshr miss latency ((Tick/Count))
system.cpu.icache.demandAvgMshrMissLatency::total 61085.647608                       # average overall mshr miss latency ((Tick/Count))
system.cpu.icache.overallAvgMshrMissLatency::cpu.inst 61085.647608                       # average overall mshr miss latency ((Tick/Count))
system.cpu.icache.overallAvgMshrMissLatency::total 61085.647608                       # average overall mshr miss latency ((Tick/Count))
system.cpu.icache.replacements                   4030                       # number of replacements (Count)
system.cpu.icache.ReadReq.hits::cpu.inst     28203016                       # number of ReadReq hits (Count)
system.cpu.icache.ReadReq.hits::total        28203016                       # number of ReadReq hits (Count)
system.cpu.icache.ReadReq.misses::cpu.inst         4285                       # number of ReadReq misses (Count)
system.cpu.icache.ReadReq.misses::total          4285                       # number of ReadReq misses (Count)
system.cpu.icache.ReadReq.missLatency::cpu.inst    270322000                       # number of ReadReq miss ticks (Tick)
system.cpu.icache.ReadReq.missLatency::total    270322000                       # number of ReadReq miss ticks (Tick)
system.cpu.icache.ReadReq.accesses::cpu.inst     28207301                       # number of ReadReq accesses(hits+misses) (Count)
system.cpu.icache.ReadReq.accesses::total     28207301                       # number of ReadReq accesses(hits+misses) (Count)
system.cpu.icache.ReadReq.missRate::cpu.inst     0.000152                       # miss rate for ReadReq accesses (Ratio)
system.cpu.icache.ReadReq.missRate::total     0.000152                       # miss rate for ReadReq accesses (Ratio)
system.cpu.icache.ReadReq.avgMissLatency::cpu.inst 63085.647608                       # average ReadReq miss latency ((Tick/Count))
system.cpu.icache.ReadReq.avgMissLatency::total 63085.647608                       # average ReadReq miss latency ((Tick/Count))
system.cpu.icache.ReadReq.mshrMisses::cpu.inst         4285                       # number of ReadReq MSHR misses (Count)
system.cpu.icache.ReadReq.mshrMisses::total         4285                       # number of ReadReq MSHR misses (Count)
system.cpu.icache.ReadReq.mshrMissLatency::cpu.inst    261752000                       # number of ReadReq MSHR miss ticks (Tick)
system.cpu.icache.ReadReq.mshrMissLatency::total    261752000                       # number of ReadReq MSHR miss ticks (Tick)
system.cpu.icache.ReadReq.mshrMissRate::cpu.inst     0.000152                       # mshr miss rate for ReadReq accesses (Ratio)
system.cpu.icache.ReadReq.mshrMissRate::total     0.000152                       # mshr miss rate for ReadReq accesses (Ratio)
system.cpu.icache.ReadReq.avgMshrMissLatency::cpu.inst 61085.647608                       # average ReadReq mshr miss latency ((Tick/Count))
system.cpu.icache.ReadReq.avgMshrMissLatency::total 61085.647608                       # average ReadReq mshr miss latency ((Tick/Count))
system.cpu.icache.power_state.pwrStateResidencyTicks::UNDEFINED 151722030000                       # Cumulative time (in ticks) in various power states (Tick)
system.cpu.icache.tags.tagsInUse           252.064224                       # Average ticks per tags in use ((Tick/Count))
system.cpu.icache.tags.totalRefs             28207301                       # Total number of references to valid blocks. (Count)
system.cpu.icache.tags.sampledRefs               4285                       # Sample count of references to valid blocks. (Count)
system.cpu.icache.tags.avgRefs            6582.800700                       # Average number of references to valid blocks. ((Count/Count))
system.cpu.icache.tags.warmupTick              107000                       # The tick when the warmup percentage was hit. (Tick)
system.cpu.icache.tags.occupancies::cpu.inst   252.064224                       # Average occupied blocks per tick, per requestor ((Count/Tick))
system.cpu.icache.tags.avgOccs::cpu.inst     0.984626                       # Average percentage of cache occupancy ((Ratio/Tick))
system.cpu.icache.tags.avgOccs::total        0.984626                       # Average percentage of cache occupancy ((Ratio/Tick))
system.cpu.icache.tags.occupanciesTaskId::1024          255                       # Occupied blocks per task id (Count)
system.cpu.icache.tags.ageTaskId_1024::0           35                       # Occupied blocks per task id, per block age (Count)
system.cpu.icache.tags.ageTaskId_1024::1           61                       # Occupied blocks per task id, per block age (Count)
system.cpu.icache.tags.ageTaskId_1024::4          159                       # Occupied blocks per task id, per block age (Count)
system.cpu.icache.tags.ratioOccsTaskId::1024     0.996094                       # Ratio of occupied blocks and all blocks, per task id (Ratio)
system.cpu.icache.tags.tagAccesses           56418887                       # Number of tag accesses (Count)
system.cpu.icache.tags.dataAccesses          56418887                       # Number of data accesses (Count)
system.cpu.icache.tags.power_state.pwrStateResidencyTicks::UNDEFINED 151722030000                       # Cumulative time (in ticks) in various power states (Tick)
system.cpu.interrupts.clk_domain.clock          16000                       # Clock period in ticks (Tick)
system.cpu.mmu.dtb.rdAccesses                13229072                       # TLB accesses on read requests (Count)
system.cpu.mmu.dtb.wrAccesses                 4416438                       # TLB accesses on write requests (Count)
system.cpu.mmu.dtb.rdMisses                      2227                       # TLB misses on read requests (Count)
system.cpu.mmu.dtb.wrMisses                     29005                       # TLB misses on write requests (Count)
system.cpu.mmu.dtb.walker.power_state.pwrStateResidencyTicks::UNDEFINED 151722030000                       # Cumulative time (in ticks) in various power states (Tick)
system.cpu.mmu.itb.rdAccesses                       0                       # TLB accesses on read requests (Count)
system.cpu.mmu.itb.wrAccesses                28207405                       # TLB accesses on write requests (Count)
system.cpu.mmu.itb.rdMisses                         0                       # TLB misses on read requests (Count)
system.cpu.mmu.itb.wrMisses                       382                       # TLB misses on write requests (Count)
system.cpu.mmu.itb.walker.power_state.pwrStateResidencyTicks::UNDEFINED 151722030000                       # Cumulative time (in ticks) in various power states (Tick)
system.cpu.power_state.pwrStateResidencyTicks::ON 151722030000                       # Cumulative time (in ticks) in various power states (Tick)
system.cpu.thread_0.numInsts                        0                       # Number of Instructions committed (Count)
system.cpu.thread_0.numOps                          0                       # Number of Ops committed (Count)
system.cpu.thread_0.numMemRefs                      0                       # Number of Memory References (Count)
system.cpu.workload.numSyscalls                    58                       # Number of system calls (Count)
system.l2bus.transDist::ReadResp                21705                       # Transaction distribution (Count)
system.l2bus.transDist::WritebackDirty        1221233                       # Transaction distribution (Count)
system.l2bus.transDist::CleanEvict             557943                       # Transaction distribution (Count)
system.l2bus.transDist::ReadExReq              678822                       # Transaction distribution (Count)
system.l2bus.transDist::ReadExResp             678822                       # Transaction distribution (Count)
system.l2bus.transDist::ReadSharedReq           21705                       # Transaction distribution (Count)
system.l2bus.pktCount_system.cpu.icache.mem_side_port::system.l2cache.cpu_side_port        12600                       # Packet count per connected requestor and responder (Count)
system.l2bus.pktCount_system.cpu.dcache.mem_side_port::system.l2cache.cpu_side_port      2087702                       # Packet count per connected requestor and responder (Count)
system.l2bus.pktCount::total                  2100302                       # Packet count per connected requestor and responder (Count)
system.l2bus.pktSize_system.cpu.icache.mem_side_port::system.l2cache.cpu_side_port       274240                       # Cumulative packet size per connected requestor and responder (Byte)
system.l2bus.pktSize_system.cpu.dcache.mem_side_port::system.l2cache.cpu_side_port     88151296                       # Cumulative packet size per connected requestor and responder (Byte)
system.l2bus.pktSize::total                  88425536                       # Cumulative packet size per connected requestor and responder (Byte)
system.l2bus.snoops                           1079928                       # Total snoops (Count)
system.l2bus.snoopTraffic                    34567104                       # Total snoop traffic (Byte)
system.l2bus.snoopFanout::samples             1780455                       # Request fanout histogram (Count)
system.l2bus.snoopFanout::mean               0.300925                       # Request fanout histogram (Count)
system.l2bus.snoopFanout::stdev              0.458758                       # Request fanout histogram (Count)
system.l2bus.snoopFanout::underflows                0      0.00%      0.00% # Request fanout histogram (Count)
system.l2bus.snoopFanout::0                   1244751     69.91%     69.91% # Request fanout histogram (Count)
system.l2bus.snoopFanout::1                    535624     30.08%    100.00% # Request fanout histogram (Count)
system.l2bus.snoopFanout::2                        80      0.00%    100.00% # Request fanout histogram (Count)
system.l2bus.snoopFanout::overflows                 0      0.00%    100.00% # Request fanout histogram (Count)
system.l2bus.snoopFanout::min_value                 0                       # Request fanout histogram (Count)
system.l2bus.snoopFanout::max_value                 2                       # Request fanout histogram (Count)
system.l2bus.snoopFanout::total               1780455                       # Request fanout histogram (Count)
system.l2bus.power_state.pwrStateResidencyTicks::UNDEFINED 151722030000                       # Cumulative time (in ticks) in various power states (Tick)
system.l2bus.reqLayer0.occupancy           2762019000                       # Layer occupancy (ticks) (Tick)
system.l2bus.reqLayer0.utilization                0.0                       # Layer utilization (Ratio)
system.l2bus.respLayer0.occupancy            12855000                       # Layer occupancy (ticks) (Tick)
system.l2bus.respLayer0.utilization               0.0                       # Layer utilization (Ratio)
system.l2bus.respLayer1.occupancy          2088726000                       # Layer occupancy (ticks) (Tick)
system.l2bus.respLayer1.utilization               0.0                       # Layer utilization (Ratio)
system.l2bus.snoop_filter.totRequests         1399775                       # Total number of requests made to the snoop filter. (Count)
system.l2bus.snoop_filter.hitSingleRequests       699248                       # Number of requests hitting in the snoop filter with a single holder of the requested data. (Count)
system.l2bus.snoop_filter.hitMultiRequests          134                       # Number of requests hitting in the snoop filter with multiple (>1) holders of the requested data. (Count)
system.l2bus.snoop_filter.totSnoops            535570                       # Total number of snoops made to the snoop filter. (Count)
system.l2bus.snoop_filter.hitSingleSnoops       535490                       # Number of snoops hitting in the snoop filter with a single holder of the requested data. (Count)
system.l2bus.snoop_filter.hitMultiSnoops           80                       # Number of snoops hitting in the snoop filter with multiple (>1) holders of the requested data. (Count)
system.l2cache.demandHits::cpu.inst              2297                       # number of demand (read+write) hits (Count)
system.l2cache.demandHits::cpu.data            140225                       # number of demand (read+write) hits (Count)
system.l2cache.demandHits::total               142522                       # number of demand (read+write) hits (Count)
system.l2cache.overallHits::cpu.inst             2297                       # number of overall hits (Count)
system.l2cache.overallHits::cpu.data           140225                       # number of overall hits (Count)
system.l2cache.overallHits::total              142522                       # number of overall hits (Count)
system.l2cache.demandMisses::cpu.inst            1988                       # number of demand (read+write) misses (Count)
system.l2cache.demandMisses::cpu.data          556017                       # number of demand (read+write) misses (Count)
system.l2cache.demandMisses::total             558005                       # number of demand (read+write) misses (Count)
system.l2cache.overallMisses::cpu.inst           1988                       # number of overall misses (Count)
system.l2cache.overallMisses::cpu.data         556017                       # number of overall misses (Count)
system.l2cache.overallMisses::total            558005                       # number of overall misses (Count)
system.l2cache.demandMissLatency::cpu.inst    200650000                       # number of demand (read+write) miss ticks (Tick)
system.l2cache.demandMissLatency::cpu.data  54647665000                       # number of demand (read+write) miss ticks (Tick)
system.l2cache.demandMissLatency::total   54848315000                       # number of demand (read+write) miss ticks (Tick)
system.l2cache.overallMissLatency::cpu.inst    200650000                       # number of overall miss ticks (Tick)
system.l2cache.overallMissLatency::cpu.data  54647665000                       # number of overall miss ticks (Tick)
system.l2cache.overallMissLatency::total  54848315000                       # number of overall miss ticks (Tick)
system.l2cache.demandAccesses::cpu.inst          4285                       # number of demand (read+write) accesses (Count)
system.l2cache.demandAccesses::cpu.data        696242                       # number of demand (read+write) accesses (Count)
system.l2cache.demandAccesses::total           700527                       # number of demand (read+write) accesses (Count)
system.l2cache.overallAccesses::cpu.inst         4285                       # number of overall (read+write) accesses (Count)
system.l2cache.overallAccesses::cpu.data       696242                       # number of overall (read+write) accesses (Count)
system.l2cache.overallAccesses::total          700527                       # number of overall (read+write) accesses (Count)
system.l2cache.demandMissRate::cpu.inst      0.463944                       # miss rate for demand accesses (Ratio)
system.l2cache.demandMissRate::cpu.data      0.798597                       # miss rate for demand accesses (Ratio)
system.l2cache.demandMissRate::total         0.796550                       # miss rate for demand accesses (Ratio)
system.l2cache.overallMissRate::cpu.inst     0.463944                       # miss rate for overall accesses (Ratio)
system.l2cache.overallMissRate::cpu.data     0.798597                       # miss rate for overall accesses (Ratio)
system.l2cache.overallMissRate::total        0.796550                       # miss rate for overall accesses (Ratio)
system.l2cache.demandAvgMissLatency::cpu.inst 100930.583501                       # average overall miss latency in ticks ((Tick/Count))
system.l2cache.demandAvgMissLatency::cpu.data 98284.162175                       # average overall miss latency in ticks ((Tick/Count))
system.l2cache.demandAvgMissLatency::total 98293.590559                       # average overall miss latency in ticks ((Tick/Count))
system.l2cache.overallAvgMissLatency::cpu.inst 100930.583501                       # average overall miss latency ((Tick/Count))
system.l2cache.overallAvgMissLatency::cpu.data 98284.162175                       # average overall miss latency ((Tick/Count))
system.l2cache.overallAvgMissLatency::total 98293.590559                       # average overall miss latency ((Tick/Count))
system.l2cache.blockedCycles::no_mshrs              0                       # number of cycles access was blocked (Cycle)
system.l2cache.blockedCycles::no_targets            0                       # number of cycles access was blocked (Cycle)
system.l2cache.blockedCauses::no_mshrs              0                       # number of times access was blocked (Count)
system.l2cache.blockedCauses::no_targets            0                       # number of times access was blocked (Count)
system.l2cache.avgBlocked::no_mshrs               nan                       # average number of cycles each access was blocked ((Cycle/Count))
system.l2cache.avgBlocked::no_targets             nan                       # average number of cycles each access was blocked ((Cycle/Count))
system.l2cache.writebacks::writebacks          540111                       # number of writebacks (Count)
system.l2cache.writebacks::total               540111                       # number of writebacks (Count)
system.l2cache.demandMshrMisses::cpu.inst         1988                       # number of demand (read+write) MSHR misses (Count)
system.l2cache.demandMshrMisses::cpu.data       556017                       # number of demand (read+write) MSHR misses (Count)
system.l2cache.demandMshrMisses::total         558005                       # number of demand (read+write) MSHR misses (Count)
system.l2cache.overallMshrMisses::cpu.inst         1988                       # number of overall MSHR misses (Count)
system.l2cache.overallMshrMisses::cpu.data       556017                       # number of overall MSHR misses (Count)
system.l2cache.overallMshrMisses::total        558005                       # number of overall MSHR misses (Count)
system.l2cache.demandMshrMissLatency::cpu.inst    160890000                       # number of demand (read+write) MSHR miss ticks (Tick)
system.l2cache.demandMshrMissLatency::cpu.data  43527325000                       # number of demand (read+write) MSHR miss ticks (Tick)
system.l2cache.demandMshrMissLatency::total  43688215000                       # number of demand (read+write) MSHR miss ticks (Tick)
system.l2cache.overallMshrMissLatency::cpu.inst    160890000                       # number of overall MSHR miss ticks (Tick)
system.l2cache.overallMshrMissLatency::cpu.data  43527325000                       # number of overall MSHR miss ticks (Tick)
system.l2cache.overallMshrMissLatency::total  43688215000                       # number of overall MSHR miss ticks (Tick)
system.l2cache.demandMshrMissRate::cpu.inst     0.463944                       # mshr miss ratio for demand accesses (Ratio)
system.l2cache.demandMshrMissRate::cpu.data     0.798597                       # mshr miss ratio for demand accesses (Ratio)
system.l2cache.demandMshrMissRate::total     0.796550                       # mshr miss ratio for demand accesses (Ratio)
system.l2cache.overallMshrMissRate::cpu.inst     0.463944                       # mshr miss ratio for overall accesses (Ratio)
system.l2cache.overallMshrMissRate::cpu.data     0.798597                       # mshr miss ratio for overall accesses (Ratio)
system.l2cache.overallMshrMissRate::total     0.796550                       # mshr miss ratio for overall accesses (Ratio)
system.l2cache.demandAvgMshrMissLatency::cpu.inst 80930.583501                       # average overall mshr miss latency ((Tick/Count))
system.l2cache.demandAvgMshrMissLatency::cpu.data 78284.162175                       # average overall mshr miss latency ((Tick/Count))
system.l2cache.demandAvgMshrMissLatency::total 78293.590559                       # average overall mshr miss latency ((Tick/Count))
system.l2cache.overallAvgMshrMissLatency::cpu.inst 80930.583501                       # average overall mshr miss latency ((Tick/Count))
system.l2cache.overallAvgMshrMissLatency::cpu.data 78284.162175                       # average overall mshr miss latency ((Tick/Count))
system.l2cache.overallAvgMshrMissLatency::total 78293.590559                       # average overall mshr miss latency ((Tick/Count))
system.l2cache.replacements                   1079928                       # number of replacements (Count)
system.l2cache.CleanEvict.mshrMisses::writebacks         8808                       # number of CleanEvict MSHR misses (Count)
system.l2cache.CleanEvict.mshrMisses::total         8808                       # number of CleanEvict MSHR misses (Count)
system.l2cache.CleanEvict.mshrMissRate::writebacks          inf                       # mshr miss rate for CleanEvict accesses (Ratio)
system.l2cache.CleanEvict.mshrMissRate::total          inf                       # mshr miss rate for CleanEvict accesses (Ratio)
system.l2cache.ReadExReq.hits::cpu.data        134820                       # number of ReadExReq hits (Count)
system.l2cache.ReadExReq.hits::total           134820                       # number of ReadExReq hits (Count)
system.l2cache.ReadExReq.misses::cpu.data       544002                       # number of ReadExReq misses (Count)
system.l2cache.ReadExReq.misses::total         544002                       # number of ReadExReq misses (Count)
system.l2cache.ReadExReq.missLatency::cpu.data  53394603000                       # number of ReadExReq miss ticks (Tick)
system.l2cache.ReadExReq.missLatency::total  53394603000                       # number of ReadExReq miss ticks (Tick)
system.l2cache.ReadExReq.accesses::cpu.data       678822                       # number of ReadExReq accesses(hits+misses) (Count)
system.l2cache.ReadExReq.accesses::total       678822                       # number of ReadExReq accesses(hits+misses) (Count)
system.l2cache.ReadExReq.missRate::cpu.data     0.801391                       # miss rate for ReadExReq accesses (Ratio)
system.l2cache.ReadExReq.missRate::total     0.801391                       # miss rate for ReadExReq accesses (Ratio)
system.l2cache.ReadExReq.avgMissLatency::cpu.data 98151.482899                       # average ReadExReq miss latency ((Tick/Count))
system.l2cache.ReadExReq.avgMissLatency::total 98151.482899                       # average ReadExReq miss latency ((Tick/Count))
system.l2cache.ReadExReq.mshrMisses::cpu.data       544002                       # number of ReadExReq MSHR misses (Count)
system.l2cache.ReadExReq.mshrMisses::total       544002                       # number of ReadExReq MSHR misses (Count)
system.l2cache.ReadExReq.mshrMissLatency::cpu.data  42514563000                       # number of ReadExReq MSHR miss ticks (Tick)
system.l2cache.ReadExReq.mshrMissLatency::total  42514563000                       # number of ReadExReq MSHR miss ticks (Tick)
system.l2cache.ReadExReq.mshrMissRate::cpu.data     0.801391                       # mshr miss rate for ReadExReq accesses (Ratio)
system.l2cache.ReadExReq.mshrMissRate::total     0.801391                       # mshr miss rate for ReadExReq accesses (Ratio)
system.l2cache.ReadExReq.avgMshrMissLatency::cpu.data 78151.482899                       # average ReadExReq mshr miss latency ((Tick/Count))
system.l2cache.ReadExReq.avgMshrMissLatency::total 78151.482899                       # average ReadExReq mshr miss latency ((Tick/Count))
system.l2cache.ReadSharedReq.hits::cpu.inst         2297                       # number of ReadSharedReq hits (Count)
system.l2cache.ReadSharedReq.hits::cpu.data         5405                       # number of ReadSharedReq hits (Count)
system.l2cache.ReadSharedReq.hits::total         7702                       # number of ReadSharedReq hits (Count)
system.l2cache.ReadSharedReq.misses::cpu.inst         1988                       # number of ReadSharedReq misses (Count)
system.l2cache.ReadSharedReq.misses::cpu.data        12015                       # number of ReadSharedReq misses (Count)
system.l2cache.ReadSharedReq.misses::total        14003                       # number of ReadSharedReq misses (Count)
system.l2cache.ReadSharedReq.missLatency::cpu.inst    200650000                       # number of ReadSharedReq miss ticks (Tick)
system.l2cache.ReadSharedReq.missLatency::cpu.data   1253062000                       # number of ReadSharedReq miss ticks (Tick)
system.l2cache.ReadSharedReq.missLatency::total   1453712000                       # number of ReadSharedReq miss ticks (Tick)
system.l2cache.ReadSharedReq.accesses::cpu.inst         4285                       # number of ReadSharedReq accesses(hits+misses) (Count)
system.l2cache.ReadSharedReq.accesses::cpu.data        17420                       # number of ReadSharedReq accesses(hits+misses) (Count)
system.l2cache.ReadSharedReq.accesses::total        21705                       # number of ReadSharedReq accesses(hits+misses) (Count)
system.l2cache.ReadSharedReq.missRate::cpu.inst     0.463944                       # miss rate for ReadSharedReq accesses (Ratio)
system.l2cache.ReadSharedReq.missRate::cpu.data     0.689724                       # miss rate for ReadSharedReq accesses (Ratio)
system.l2cache.ReadSharedReq.missRate::total     0.645151                       # miss rate for ReadSharedReq accesses (Ratio)
system.l2cache.ReadSharedReq.avgMissLatency::cpu.inst 100930.583501                       # average ReadSharedReq miss latency ((Tick/Count))
system.l2cache.ReadSharedReq.avgMissLatency::cpu.data 104291.468997                       # average ReadSharedReq miss latency ((Tick/Count))
system.l2cache.ReadSharedReq.avgMissLatency::total 103814.325502                       # average ReadSharedReq miss latency ((Tick/Count))
system.l2cache.ReadSharedReq.mshrMisses::cpu.inst         1988                       # number of ReadSharedReq MSHR misses (Count)
system.l2cache.ReadSharedReq.mshrMisses::cpu.data        12015                       # number of ReadSharedReq MSHR misses (Count)
system.l2cache.ReadSharedReq.mshrMisses::total        14003                       # number of ReadSharedReq MSHR misses (Count)
system.l2cache.ReadSharedReq.mshrMissLatency::cpu.inst    160890000                       # number of ReadSharedReq MSHR miss ticks (Tick)
system.l2cache.ReadSharedReq.mshrMissLatency::cpu.data   1012762000                       # number of ReadSharedReq MSHR miss ticks (Tick)
system.l2cache.ReadSharedReq.mshrMissLatency::total   1173652000                       # number of ReadSharedReq MSHR miss ticks (Tick)
system.l2cache.ReadSharedReq.mshrMissRate::cpu.inst     0.463944                       # mshr miss rate for ReadSharedReq accesses (Ratio)
system.l2cache.ReadSharedReq.mshrMissRate::cpu.data     0.689724                       # mshr miss rate for ReadSharedReq accesses (Ratio)
system.l2cache.ReadSharedReq.mshrMissRate::total     0.645151                       # mshr miss rate for ReadSharedReq accesses (Ratio)
system.l2cache.ReadSharedReq.avgMshrMissLatency::cpu.inst 80930.583501                       # average ReadSharedReq mshr miss latency ((Tick/Count))
system.l2cache.ReadSharedReq.avgMshrMissLatency::cpu.data 84291.468997                       # average ReadSharedReq mshr miss latency ((Tick/Count))
system.l2cache.ReadSharedReq.avgMshrMissLatency::total 83814.325502                       # average ReadSharedReq mshr miss latency ((Tick/Count))
system.l2cache.WritebackDirty.hits::writebacks       681122                       # number of WritebackDirty hits (Count)
system.l2cache.WritebackDirty.hits::total       681122                       # number of WritebackDirty hits (Count)
system.l2cache.WritebackDirty.accesses::writebacks       681122                       # number of WritebackDirty accesses(hits+misses) (Count)
system.l2cache.WritebackDirty.accesses::total       681122                       # number of WritebackDirty accesses(hits+misses) (Count)
system.l2cache.power_state.pwrStateResidencyTicks::UNDEFINED 151722030000                       # Cumulative time (in ticks) in various power states (Tick)
system.l2cache.tags.tagsInUse             3863.810485                       # Average ticks per tags in use ((Tick/Count))
system.l2cache.tags.totalRefs                 1390833                       # Total number of references to valid blocks. (Count)
system.l2cache.tags.sampledRefs               1084024                       # Sample count of references to valid blocks. (Count)
system.l2cache.tags.avgRefs                  1.283028                       # Average number of references to valid blocks. ((Count/Count))
system.l2cache.tags.warmupTick                  86000                       # The tick when the warmup percentage was hit. (Tick)
system.l2cache.tags.occupancies::writebacks  3119.443319                       # Average occupied blocks per tick, per requestor ((Count/Tick))
system.l2cache.tags.occupancies::cpu.inst     9.174510                       # Average occupied blocks per tick, per requestor ((Count/Tick))
system.l2cache.tags.occupancies::cpu.data   735.192656                       # Average occupied blocks per tick, per requestor ((Count/Tick))
system.l2cache.tags.avgOccs::writebacks      0.761583                       # Average percentage of cache occupancy ((Ratio/Tick))
system.l2cache.tags.avgOccs::cpu.inst        0.002240                       # Average percentage of cache occupancy ((Ratio/Tick))
system.l2cache.tags.avgOccs::cpu.data        0.179490                       # Average percentage of cache occupancy ((Ratio/Tick))
system.l2cache.tags.avgOccs::total           0.943313                       # Average percentage of cache occupancy ((Ratio/Tick))
system.l2cache.tags.occupanciesTaskId::1024         4096                       # Occupied blocks per task id (Count)
system.l2cache.tags.ageTaskId_1024::0              59                       # Occupied blocks per task id, per block age (Count)
system.l2cache.tags.ageTaskId_1024::1             277                       # Occupied blocks per task id, per block age (Count)
system.l2cache.tags.ageTaskId_1024::2             683                       # Occupied blocks per task id, per block age (Count)
system.l2cache.tags.ageTaskId_1024::3            3074                       # Occupied blocks per task id, per block age (Count)
system.l2cache.tags.ageTaskId_1024::4               3                       # Occupied blocks per task id, per block age (Count)
system.l2cache.tags.ratioOccsTaskId::1024            1                       # Ratio of occupied blocks and all blocks, per task id (Ratio)
system.l2cache.tags.tagAccesses              12281152                       # Number of tag accesses (Count)
system.l2cache.tags.dataAccesses             12281152                       # Number of data accesses (Count)
system.l2cache.tags.power_state.pwrStateResidencyTicks::UNDEFINED 151722030000                       # Cumulative time (in ticks) in various power states (Tick)
system.mem_ctrl.avgPriority_writebacks::samples    540107.00                       # Average QoS priority value for accepted requests (Count)
system.mem_ctrl.avgPriority_cpu.inst::samples      1988.00                       # Average QoS priority value for accepted requests (Count)
system.mem_ctrl.avgPriority_cpu.data::samples    555873.00                       # Average QoS priority value for accepted requests (Count)
system.mem_ctrl.priorityMinLatency       0.000000018750                       # per QoS priority minimum request to response latency (Second)
system.mem_ctrl.priorityMaxLatency       0.003224998500                       # per QoS priority maximum request to response latency (Second)
system.mem_ctrl.numReadWriteTurnArounds         30790                       # Number of turnarounds from READ to WRITE (Count)
system.mem_ctrl.numWriteReadTurnArounds         30790                       # Number of turnarounds from WRITE to READ (Count)
system.mem_ctrl.numStayReadState              1676042                       # Number of times bus staying in READ state (Count)
system.mem_ctrl.numStayWriteState              510222                       # Number of times bus staying in WRITE state (Count)
system.mem_ctrl.readReqs                       558005                       # Number of read requests accepted (Count)
system.mem_ctrl.writeReqs                      540111                       # Number of write requests accepted (Count)
system.mem_ctrl.readBursts                     558005                       # Number of controller read bursts, including those serviced by the write queue (Count)
system.mem_ctrl.writeBursts                    540111                       # Number of controller write bursts, including those merged in the write queue (Count)
system.mem_ctrl.servicedByWrQ                     144                       # Number of controller read bursts serviced by the write queue (Count)
system.mem_ctrl.mergedWrBursts                      4                       # Number of controller write bursts merged with an existing one (Count)
system.mem_ctrl.neitherReadNorWriteReqs             0                       # Number of requests that are neither read nor write (Count)
system.mem_ctrl.avgRdQLen                        1.00                       # Average read queue length when enqueuing ((Count/Tick))
system.mem_ctrl.avgWrQLen                       24.63                       # Average write queue length when enqueuing ((Count/Tick))
system.mem_ctrl.numRdRetry                          0                       # Number of times read queue was full causing retry (Count)
system.mem_ctrl.numWrRetry                          0                       # Number of times write queue was full causing retry (Count)
system.mem_ctrl.readPktSize::0                      0                       # Read request sizes (log2) (Count)
system.mem_ctrl.readPktSize::1                      0                       # Read request sizes (log2) (Count)
system.mem_ctrl.readPktSize::2                      0                       # Read request sizes (log2) (Count)
system.mem_ctrl.readPktSize::3                      0                       # Read request sizes (log2) (Count)
system.mem_ctrl.readPktSize::4                      0                       # Read request sizes (log2) (Count)
system.mem_ctrl.readPktSize::5                      0                       # Read request sizes (log2) (Count)
system.mem_ctrl.readPktSize::6                 558005                       # Read request sizes (log2) (Count)
system.mem_ctrl.writePktSize::0                     0                       # Write request sizes (log2) (Count)
system.mem_ctrl.writePktSize::1                     0                       # Write request sizes (log2) (Count)
system.mem_ctrl.writePktSize::2                     0                       # Write request sizes (log2) (Count)
system.mem_ctrl.writePktSize::3                     0                       # Write request sizes (log2) (Count)
system.mem_ctrl.writePktSize::4                     0                       # Write request sizes (log2) (Count)
system.mem_ctrl.writePktSize::5                     0                       # Write request sizes (log2) (Count)
system.mem_ctrl.writePktSize::6                540111                       # Write request sizes (log2) (Count)
system.mem_ctrl.rdQLenPdf::0                   557861                       # What read queue length does an incoming req see (Count)
system.mem_ctrl.rdQLenPdf::1                        0                       # What read queue length does an incoming req see (Count)
system.mem_ctrl.rdQLenPdf::2                        0                       # What read queue length does an incoming req see (Count)
system.mem_ctrl.rdQLenPdf::3                        0                       # What read queue length does an incoming req see (Count)
system.mem_ctrl.rdQLenPdf::4                        0                       # What read queue length does an incoming req see (Count)
system.mem_ctrl.rdQLenPdf::5                        0                       # What read queue length does an incoming req see (Count)
system.mem_ctrl.rdQLenPdf::6                        0                       # What read queue length does an incoming req see (Count)
system.mem_ctrl.rdQLenPdf::7                        0                       # What read queue length does an incoming req see (Count)
system.mem_ctrl.rdQLenPdf::8                        0                       # What read queue length does an incoming req see (Count)
system.mem_ctrl.rdQLenPdf::9                        0                       # What read queue length does an incoming req see (Count)
system.mem_ctrl.rdQLenPdf::10                       0                       # What read queue length does an incoming req see (Count)
system.mem_ctrl.rdQLenPdf::11                       0                       # What read queue length does an incoming req see (Count)
system.mem_ctrl.rdQLenPdf::12                       0                       # What read queue length does an incoming req see (Count)
system.mem_ctrl.rdQLenPdf::13                       0                       # What read queue length does an incoming req see (Count)
system.mem_ctrl.rdQLenPdf::14                       0                       # What read queue length does an incoming req see (Count)
system.mem_ctrl.rdQLenPdf::15                       0                       # What read queue length does an incoming req see (Count)
system.mem_ctrl.rdQLenPdf::16                       0                       # What read queue length does an incoming req see (Count)
system.mem_ctrl.rdQLenPdf::17                       0                       # What read queue length does an incoming req see (Count)
system.mem_ctrl.rdQLenPdf::18                       0                       # What read queue length does an incoming req see (Count)
system.mem_ctrl.rdQLenPdf::19                       0                       # What read queue length does an incoming req see (Count)
system.mem_ctrl.rdQLenPdf::20                       0                       # What read queue length does an incoming req see (Count)
system.mem_ctrl.rdQLenPdf::21                       0                       # What read queue length does an incoming req see (Count)
system.mem_ctrl.rdQLenPdf::22                       0                       # What read queue length does an incoming req see (Count)
system.mem_ctrl.rdQLenPdf::23                       0                       # What read queue length does an incoming req see (Count)
system.mem_ctrl.rdQLenPdf::24                       0                       # What read queue length does an incoming req see (Count)
system.mem_ctrl.rdQLenPdf::25                       0                       # What read queue length does an incoming req see (Count)
system.mem_ctrl.rdQLenPdf::26                       0                       # What read queue length does an incoming req see (Count)
system.mem_ctrl.rdQLenPdf::27                       0                       # What read queue length does an incoming req see (Count)
system.mem_ctrl.rdQLenPdf::28                       0                       # What read queue length does an incoming req see (Count)
system.mem_ctrl.rdQLenPdf::29                       0                       # What read queue length does an incoming req see (Count)
system.mem_ctrl.rdQLenPdf::30                       0                       # What read queue length does an incoming req see (Count)
system.mem_ctrl.rdQLenPdf::31                       0                       # What read queue length does an incoming req see (Count)
system.mem_ctrl.wrQLenPdf::0                        1                       # What write queue length does an incoming req see (Count)
system.mem_ctrl.wrQLenPdf::1                        1                       # What write queue length does an incoming req see (Count)
system.mem_ctrl.wrQLenPdf::2                        1                       # What write queue length does an incoming req see (Count)
system.mem_ctrl.wrQLenPdf::3                        1                       # What write queue length does an incoming req see (Count)
system.mem_ctrl.wrQLenPdf::4                        1                       # What write queue length does an incoming req see (Count)
system.mem_ctrl.wrQLenPdf::5                        1                       # What write queue length does an incoming req see (Count)
system.mem_ctrl.wrQLenPdf::6                        1                       # What write queue length does an incoming req see (Count)
system.mem_ctrl.wrQLenPdf::7                        1                       # What write queue length does an incoming req see (Count)
system.mem_ctrl.wrQLenPdf::8                        1                       # What write queue length does an incoming req see (Count)
system.mem_ctrl.wrQLenPdf::9                        1                       # What write queue length does an incoming req see (Count)
system.mem_ctrl.wrQLenPdf::10                       1                       # What write queue length does an incoming req see (Count)
system.mem_ctrl.wrQLenPdf::11                       1                       # What write queue length does an incoming req see (Count)
system.mem_ctrl.wrQLenPdf::12                       1                       # What write queue length does an incoming req see (Count)
system.mem_ctrl.wrQLenPdf::13                       1                       # What write queue length does an incoming req see (Count)
system.mem_ctrl.wrQLenPdf::14                       1                       # What write queue length does an incoming req see (Count)
system.mem_ctrl.wrQLenPdf::15                   19388                       # What write queue length does an incoming req see (Count)
system.mem_ctrl.wrQLenPdf::16                   26602                       # What write queue length does an incoming req see (Count)
system.mem_ctrl.wrQLenPdf::17                   31483                       # What write queue length does an incoming req see (Count)
system.mem_ctrl.wrQLenPdf::18                   30889                       # What write queue length does an incoming req see (Count)
system.mem_ctrl.wrQLenPdf::19                   30856                       # What write queue length does an incoming req see (Count)
system.mem_ctrl.wrQLenPdf::20                   30863                       # What write queue length does an incoming req see (Count)
system.mem_ctrl.wrQLenPdf::21                   30828                       # What write queue length does an incoming req see (Count)
system.mem_ctrl.wrQLenPdf::22                   30848                       # What write queue length does an incoming req see (Count)
system.mem_ctrl.wrQLenPdf::23                   30856                       # What write queue length does an incoming req see (Count)
system.mem_ctrl.wrQLenPdf::24                   30829                       # What write queue length does an incoming req see (Count)
system.mem_ctrl.wrQLenPdf::25                   30916                       # What write queue length does an incoming req see (Count)
system.mem_ctrl.wrQLenPdf::26                   30809                       # What write queue length does an incoming req see (Count)
system.mem_ctrl.wrQLenPdf::27                   30805                       # What write queue length does an incoming req see (Count)
system.mem_ctrl.wrQLenPdf::28                   30802                       # What write queue length does an incoming req see (Count)
system.mem_ctrl.wrQLenPdf::29                   30799                       # What write queue length does an incoming req see (Count)
system.mem_ctrl.wrQLenPdf::30                   30795                       # What write queue length does an incoming req see (Count)
system.mem_ctrl.wrQLenPdf::31                   30791                       # What write queue length does an incoming req see (Count)
system.mem_ctrl.wrQLenPdf::32                   30791                       # What write queue length does an incoming req see (Count)
system.mem_ctrl.wrQLenPdf::33                      96                       # What write queue length does an incoming req see (Count)
system.mem_ctrl.wrQLenPdf::34                      35                       # What write queue length does an incoming req see (Count)
system.mem_ctrl.wrQLenPdf::35                       9                       # What write queue length does an incoming req see (Count)
system.mem_ctrl.wrQLenPdf::36                       2                       # What write queue length does an incoming req see (Count)
system.mem_ctrl.wrQLenPdf::37                       0                       # What write queue length does an incoming req see (Count)
system.mem_ctrl.wrQLenPdf::38                       0                       # What write queue length does an incoming req see (Count)
system.mem_ctrl.wrQLenPdf::39                       0                       # What write queue length does an incoming req see (Count)
system.mem_ctrl.wrQLenPdf::40                       0                       # What write queue length does an incoming req see (Count)
system.mem_ctrl.wrQLenPdf::41                       0                       # What write queue length does an incoming req see (Count)
system.mem_ctrl.wrQLenPdf::42                       0                       # What write queue length does an incoming req see (Count)
[...]
system.mem_ctrl.dram.bytesWritten::total     34567104                       # Number of bytes written to this memory (Byte)
system.mem_ctrl.dram.numReads::cpu.inst          1988                       # Number of read requests responded to by this memory (Count)
system.mem_ctrl.dram.numReads::cpu.data        556017                       # Number of read requests responded to by this memory (Count)
system.mem_ctrl.dram.numReads::total           558005                       # Number of read requests responded to by this memory (Count)
system.mem_ctrl.dram.numWrites::writebacks       540111                       # Number of write requests responded to by this memory (Count)
system.mem_ctrl.dram.numWrites::total          540111                       # Number of write requests responded to by this memory (Count)
system.mem_ctrl.dram.bwRead::cpu.inst          838586                       # Total read bandwidth from this memory ((Byte/Second))
system.mem_ctrl.dram.bwRead::cpu.data       234541339                       # Total read bandwidth from this memory ((Byte/Second))
system.mem_ctrl.dram.bwRead::total          235379925                       # Total read bandwidth from this memory ((Byte/Second))
system.mem_ctrl.dram.bwInstRead::cpu.inst       838586                       # Instruction read bandwidth from this memory ((Byte/Second))
system.mem_ctrl.dram.bwInstRead::total         838586                       # Instruction read bandwidth from this memory ((Byte/Second))
system.mem_ctrl.dram.bwWrite::writebacks    227831805                       # Write bandwidth from this memory ((Byte/Second))
system.mem_ctrl.dram.bwWrite::total         227831805                       # Write bandwidth from this memory ((Byte/Second))
system.mem_ctrl.dram.bwTotal::writebacks    227831805                       # Total bandwidth to/from this memory ((Byte/Second))
system.mem_ctrl.dram.bwTotal::cpu.inst         838586                       # Total bandwidth to/from this memory ((Byte/Second))
system.mem_ctrl.dram.bwTotal::cpu.data      234541339                       # Total bandwidth to/from this memory ((Byte/Second))
system.mem_ctrl.dram.bwTotal::total         463211730                       # Total bandwidth to/from this memory ((Byte/Second))
system.mem_ctrl.dram.readBursts                557861                       # Number of DRAM read bursts (Count)
system.mem_ctrl.dram.writeBursts               540088                       # Number of DRAM write bursts (Count)
system.mem_ctrl.dram.perBankRdBursts::0         37683                       # Per bank write bursts (Count)
system.mem_ctrl.dram.perBankRdBursts::1         37702                       # Per bank write bursts (Count)
system.mem_ctrl.dram.perBankRdBursts::2         37870                       # Per bank write bursts (Count)
system.mem_ctrl.dram.perBankRdBursts::3         37523                       # Per bank write bursts (Count)
system.mem_ctrl.dram.perBankRdBursts::4         35064                       # Per bank write bursts (Count)
system.mem_ctrl.dram.perBankRdBursts::5         31391                       # Per bank write bursts (Count)
system.mem_ctrl.dram.perBankRdBursts::6         29998                       # Per bank write bursts (Count)
system.mem_ctrl.dram.perBankRdBursts::7         30174                       # Per bank write bursts (Count)
system.mem_ctrl.dram.perBankRdBursts::8         29726                       # Per bank write bursts (Count)
system.mem_ctrl.dram.perBankRdBursts::9         31222                       # Per bank write bursts (Count)
system.mem_ctrl.dram.perBankRdBursts::10        32128                       # Per bank write bursts (Count)
system.mem_ctrl.dram.perBankRdBursts::11        35854                       # Per bank write bursts (Count)
system.mem_ctrl.dram.perBankRdBursts::12        37143                       # Per bank write bursts (Count)
system.mem_ctrl.dram.perBankRdBursts::13        37872                       # Per bank write bursts (Count)
system.mem_ctrl.dram.perBankRdBursts::14        38430                       # Per bank write bursts (Count)
system.mem_ctrl.dram.perBankRdBursts::15        38081                       # Per bank write bursts (Count)
system.mem_ctrl.dram.perBankWrBursts::0         36295                       # Per bank write bursts (Count)
system.mem_ctrl.dram.perBankWrBursts::1         36784                       # Per bank write bursts (Count)
system.mem_ctrl.dram.perBankWrBursts::2         36931                       # Per bank write bursts (Count)
system.mem_ctrl.dram.perBankWrBursts::3         36458                       # Per bank write bursts (Count)
system.mem_ctrl.dram.perBankWrBursts::4         34049                       # Per bank write bursts (Count)
system.mem_ctrl.dram.perBankWrBursts::5         30353                       # Per bank write bursts (Count)
system.mem_ctrl.dram.perBankWrBursts::6         29023                       # Per bank write bursts (Count)
system.mem_ctrl.dram.perBankWrBursts::7         29271                       # Per bank write bursts (Count)
system.mem_ctrl.dram.perBankWrBursts::8         28801                       # Per bank write bursts (Count)
system.mem_ctrl.dram.perBankWrBursts::9         29811                       # Per bank write bursts (Count)
system.mem_ctrl.dram.perBankWrBursts::10        30621                       # Per bank write bursts (Count)
system.mem_ctrl.dram.perBankWrBursts::11        34889                       # Per bank write bursts (Count)
system.mem_ctrl.dram.perBankWrBursts::12        36277                       # Per bank write bursts (Count)
system.mem_ctrl.dram.perBankWrBursts::13        36737                       # Per bank write bursts (Count)
system.mem_ctrl.dram.perBankWrBursts::14        36820                       # Per bank write bursts (Count)
system.mem_ctrl.dram.perBankWrBursts::15        36968                       # Per bank write bursts (Count)
system.mem_ctrl.dram.totQLat               4614695000                       # Total ticks spent queuing (Tick)
system.mem_ctrl.dram.totBusLat             2789305000                       # Total ticks spent in databus transfers (Tick)
system.mem_ctrl.dram.totMemAccLat         15074588750                       # Total ticks spent from burst creation until serviced by the DRAM (Tick)
system.mem_ctrl.dram.avgQLat                  8272.12                       # Average queueing delay per DRAM burst ((Tick/Count))
system.mem_ctrl.dram.avgBusLat                5000.00                       # Average bus latency per DRAM burst ((Tick/Count))
system.mem_ctrl.dram.avgMemAccLat            27022.12                       # Average memory access latency per DRAM burst ((Tick/Count))
system.mem_ctrl.dram.readRowHits               495275                       # Number of row buffer hits during reads (Count)
system.mem_ctrl.dram.writeRowHits              445916                       # Number of row buffer hits during writes (Count)
system.mem_ctrl.dram.readRowHitRate             88.78                       # Row buffer hit rate for reads (Ratio)
system.mem_ctrl.dram.writeRowHitRate            82.56                       # Row buffer hit rate for writes (Ratio)
system.mem_ctrl.dram.bytesPerActivate::samples       156746                       # Bytes accessed per row activation (Byte)
system.mem_ctrl.dram.bytesPerActivate::mean   448.284588                       # Bytes accessed per row activation (Byte)
system.mem_ctrl.dram.bytesPerActivate::gmean   277.904607                       # Bytes accessed per row activation (Byte)
system.mem_ctrl.dram.bytesPerActivate::stdev   378.519523                       # Bytes accessed per row activation (Byte)
system.mem_ctrl.dram.bytesPerActivate::0-127        36221     23.11%     23.11% # Bytes accessed per row activation (Byte)
system.mem_ctrl.dram.bytesPerActivate::128-255        32090     20.47%     43.58% # Bytes accessed per row activation (Byte)
system.mem_ctrl.dram.bytesPerActivate::256-383        16074     10.25%     53.84% # Bytes accessed per row activation (Byte)
system.mem_ctrl.dram.bytesPerActivate::384-511        11629      7.42%     61.25% # Bytes accessed per row activation (Byte)
system.mem_ctrl.dram.bytesPerActivate::512-639         9105      5.81%     67.06% # Bytes accessed per row activation (Byte)
system.mem_ctrl.dram.bytesPerActivate::640-767         6430      4.10%     71.17% # Bytes accessed per row activation (Byte)
system.mem_ctrl.dram.bytesPerActivate::768-895         5610      3.58%     74.74% # Bytes accessed per row activation (Byte)
system.mem_ctrl.dram.bytesPerActivate::896-1023         4715      3.01%     77.75% # Bytes accessed per row activation (Byte)
system.mem_ctrl.dram.bytesPerActivate::1024-1151        34872     22.25%    100.00% # Bytes accessed per row activation (Byte)
system.mem_ctrl.dram.bytesPerActivate::total       156746                       # Bytes accessed per row activation (Byte)
system.mem_ctrl.dram.bytesRead               35703104                       # Total bytes read (Byte)
system.mem_ctrl.dram.bytesWritten            34565632                       # Total bytes written (Byte)
system.mem_ctrl.dram.avgRdBW               235.319182                       # Average DRAM read bandwidth in MiBytes/s ((Byte/Second))
system.mem_ctrl.dram.avgWrBW               227.822103                       # Average DRAM write bandwidth in MiBytes/s ((Byte/Second))
system.mem_ctrl.dram.peakBW                  12800.00                       # Theoretical peak bandwidth in MiByte/s ((Byte/Second))
system.mem_ctrl.dram.busUtil                     3.62                       # Data bus utilization in percentage (Ratio)
system.mem_ctrl.dram.busUtilRead                 1.84                       # Data bus utilization in percentage for reads (Ratio)
system.mem_ctrl.dram.busUtilWrite                1.78                       # Data bus utilization in percentage for writes (Ratio)
system.mem_ctrl.dram.pageHitRate                85.72                       # Row buffer hit rate, read and write combined (Ratio)
system.mem_ctrl.dram.power_state.pwrStateResidencyTicks::UNDEFINED 151722030000                       # Cumulative time (in ticks) in various power states (Tick)
system.mem_ctrl.dram.rank0.actEnergy        556955700                       # Energy for activate commands per rank (pJ) (Joule)
system.mem_ctrl.dram.rank0.preEnergy        296010000                       # Energy for precharge commands per rank (pJ) (Joule)
system.mem_ctrl.dram.rank0.readEnergy      1980671700                       # Energy for read commands per rank (pJ) (Joule)
system.mem_ctrl.dram.rank0.writeEnergy     1405036080                       # Energy for write commands per rank (pJ) (Joule)
system.mem_ctrl.dram.rank0.refreshEnergy 11976260400.000002                       # Energy for refresh commands per rank (pJ) (Joule)
system.mem_ctrl.dram.rank0.actBackEnergy  49225162950                       # Energy for active background per rank (pJ) (Joule)
system.mem_ctrl.dram.rank0.preBackEnergy  16808490720                       # Energy for precharge background per rank (pJ) (Joule)
system.mem_ctrl.dram.rank0.actPowerDownEnergy            0                       # Energy for active power-down per rank (pJ) (Joule)
system.mem_ctrl.dram.rank0.prePowerDownEnergy            0                       # Energy for precharge power-down per rank (pJ) (Joule)
system.mem_ctrl.dram.rank0.selfRefreshEnergy            0                       # Energy for self refresh per rank (pJ) (Joule)
system.mem_ctrl.dram.rank0.totalEnergy    82248587550                       # Total energy per rank (pJ) (Joule)
system.mem_ctrl.dram.rank0.averagePower    542.100495                       # Core power per rank (mW) (Watt)
system.mem_ctrl.dram.rank0.totalIdleTime            0                       # Total Idle time Per DRAM Rank (Tick)
system.mem_ctrl.dram.rank0.pwrStateTime::IDLE  43142374000                       # Time in different power states (Tick)
system.mem_ctrl.dram.rank0.pwrStateTime::REF   5066100000                       # Time in different power states (Tick)
system.mem_ctrl.dram.rank0.pwrStateTime::SREF            0                       # Time in different power states (Tick)
system.mem_ctrl.dram.rank0.pwrStateTime::PRE_PDN            0                       # Time in different power states (Tick)
system.mem_ctrl.dram.rank0.pwrStateTime::ACT 103513556000                       # Time in different power states (Tick)
system.mem_ctrl.dram.rank0.pwrStateTime::ACT_PDN            0                       # Time in different power states (Tick)
system.mem_ctrl.dram.rank1.actEnergy        562296420                       # Energy for activate commands per rank (pJ) (Joule)
system.mem_ctrl.dram.rank1.preEnergy        298841070                       # Energy for precharge commands per rank (pJ) (Joule)
system.mem_ctrl.dram.rank1.readEnergy      2002455840                       # Energy for read commands per rank (pJ) (Joule)
system.mem_ctrl.dram.rank1.writeEnergy     1414223280                       # Energy for write commands per rank (pJ) (Joule)
system.mem_ctrl.dram.rank1.refreshEnergy 11976260400.000002                       # Energy for refresh commands per rank (pJ) (Joule)
system.mem_ctrl.dram.rank1.actBackEnergy  49292470830                       # Energy for active background per rank (pJ) (Joule)
system.mem_ctrl.dram.rank1.preBackEnergy  16751810400                       # Energy for precharge background per rank (pJ) (Joule)
system.mem_ctrl.dram.rank1.actPowerDownEnergy            0                       # Energy for active power-down per rank (pJ) (Joule)
system.mem_ctrl.dram.rank1.prePowerDownEnergy            0                       # Energy for precharge power-down per rank (pJ) (Joule)
system.mem_ctrl.dram.rank1.selfRefreshEnergy            0                       # Energy for self refresh per rank (pJ) (Joule)
system.mem_ctrl.dram.rank1.totalEnergy    82298358240                       # Total energy per rank (pJ) (Joule)
system.mem_ctrl.dram.rank1.averagePower    542.428534                       # Core power per rank (mW) (Watt)
system.mem_ctrl.dram.rank1.totalIdleTime            0                       # Total Idle time Per DRAM Rank (Tick)
system.mem_ctrl.dram.rank1.pwrStateTime::IDLE  42999325750                       # Time in different power states (Tick)
system.mem_ctrl.dram.rank1.pwrStateTime::REF   5066100000                       # Time in different power states (Tick)
system.mem_ctrl.dram.rank1.pwrStateTime::SREF            0                       # Time in different power states (Tick)
system.mem_ctrl.dram.rank1.pwrStateTime::PRE_PDN            0                       # Time in different power states (Tick)
system.mem_ctrl.dram.rank1.pwrStateTime::ACT 103656604250                       # Time in different power states (Tick)
system.mem_ctrl.dram.rank1.pwrStateTime::ACT_PDN            0                       # Time in different power states (Tick)
system.mem_ctrl.power_state.pwrStateResidencyTicks::UNDEFINED 151722030000                       # Cumulative time (in ticks) in various power states (Tick)
system.membus.transDist::ReadResp               14003                       # Transaction distribution (Count)
system.membus.transDist::WritebackDirty        540111                       # Transaction distribution (Count)
system.membus.transDist::CleanEvict             13055                       # Transaction distribution (Count)
system.membus.transDist::ReadExReq             544002                       # Transaction distribution (Count)
system.membus.transDist::ReadExResp            544002                       # Transaction distribution (Count)
system.membus.transDist::ReadSharedReq          14003                       # Transaction distribution (Count)
system.membus.pktCount_system.l2cache.mem_side_port::system.mem_ctrl.port      1669176                       # Packet count per connected requestor and responder (Count)
system.membus.pktCount_system.l2cache.mem_side_port::total      1669176                       # Packet count per connected requestor and responder (Count)
system.membus.pktCount::total                 1669176                       # Packet count per connected requestor and responder (Count)
system.membus.pktSize_system.l2cache.mem_side_port::system.mem_ctrl.port     70279424                       # Cumulative packet size per connected requestor and responder (Byte)
system.membus.pktSize_system.l2cache.mem_side_port::total     70279424                       # Cumulative packet size per connected requestor and responder (Byte)
system.membus.pktSize::total                 70279424                       # Cumulative packet size per connected requestor and responder (Byte)
system.membus.snoops                                0                       # Total snoops (Count)
system.membus.snoopTraffic                          0                       # Total snoop traffic (Byte)
system.membus.snoopFanout::samples             558005                       # Request fanout histogram (Count)
system.membus.snoopFanout::mean                     0                       # Request fanout histogram (Count)
system.membus.snoopFanout::stdev                    0                       # Request fanout histogram (Count)
system.membus.snoopFanout::underflows               0      0.00%      0.00% # Request fanout histogram (Count)
system.membus.snoopFanout::0                   558005    100.00%    100.00% # Request fanout histogram (Count)
system.membus.snoopFanout::1                        0      0.00%    100.00% # Request fanout histogram (Count)
system.membus.snoopFanout::overflows                0      0.00%    100.00% # Request fanout histogram (Count)
system.membus.snoopFanout::min_value                0                       # Request fanout histogram (Count)
system.membus.snoopFanout::max_value                0                       # Request fanout histogram (Count)
system.membus.snoopFanout::total               558005                       # Request fanout histogram (Count)
system.membus.power_state.pwrStateResidencyTicks::UNDEFINED 151722030000                       # Cumulative time (in ticks) in various power states (Tick)
system.membus.reqLayer2.occupancy          3271615000                       # Layer occupancy (ticks) (Tick)
system.membus.reqLayer2.utilization               0.0                       # Layer utilization (Ratio)
system.membus.respLayer0.occupancy         2946666250                       # Layer occupancy (ticks) (Tick)
system.membus.respLayer0.utilization              0.0                       # Layer utilization (Ratio)
system.membus.snoop_filter.totRequests        1111171                       # Total number of requests made to the snoop filter. (Count)
system.membus.snoop_filter.hitSingleRequests       553251                       # Number of requests hitting in the snoop filter with a single holder of the requested data. (Count)
system.membus.snoop_filter.hitMultiRequests            0                       # Number of requests hitting in the snoop filter with multiple (>1) holders of the requested data. (Count)
system.membus.snoop_filter.totSnoops                0                       # Total number of snoops made to the snoop filter. (Count)
system.membus.snoop_filter.hitSingleSnoops            0                       # Number of snoops hitting in the snoop filter with a single holder of the requested data. (Count)
system.membus.snoop_filter.hitMultiSnoops            0                       # Number of snoops hitting in the snoop filter with multiple (>1) holders of the requested data. (Count)
system.workload.inst.arm                            0                       # number of arm instructions executed (Count)
system.workload.inst.quiesce                        0                       # number of quiesce instructions executed (Count)

---------- End Simulation Statistics   ----------
