
---------- Begin Simulation Statistics ----------
simSeconds                                   0.151662                       # Number of seconds simulated (Second)
simTicks                                 151661831000                       # Number of ticks simulated (Tick)
finalTick                                151661831000                       # Number of ticks from beginning of simulation (restored from checkpoints and never reset) (Tick)
simFreq                                  1000000000000                       # The number of ticks per simulated second ((Tick/Second))
hostSeconds                                    252.69                       # Real time elapsed on the host (Second)
hostTickRate                                600177981                       # The number of ticks simulated per host second (ticks/s) ((Tick/Second))
hostMemory                                     736108                       # Number of bytes of host memory used (Byte)
simInsts                                     25399392                       # Number of instructions simulated (Count)
simOps                                       43904756                       # Number of ops (including micro ops) simulated (Count)
hostInstRate                                   100514                       # Simulator instruction rate (inst/s) ((Count/Second))
hostOpRate                                     173746                       # Simulator op (including micro ops) rate (op/s) ((Count/Second))
system.clk_domain.clock                          1000                       # Clock period in ticks (Tick)
system.clk_domain.voltage_domain.voltage            1                       # Voltage in Volts (Volt)
system.cpu.numCycles                        151661831                       # Number of cpu cycles simulated (Cycle)
system.cpu.numWorkItemsStarted                      0                       # Number of work items this cpu started (Count)
system.cpu.numWorkItemsCompleted                    0                       # Number of work items this cpu completed (Count)
system.cpu.dcache.demandHits::cpu.data       16948653                       # number of demand (read+write) hits (Count)
system.cpu.dcache.demandHits::total          16948653                       # number of demand (read+write) hits (Count)
system.cpu.dcache.overallHits::cpu.data      16948653                       # number of overall hits (Count)
system.cpu.dcache.overallHits::total         16948653                       # number of overall hits (Count)
system.cpu.dcache.demandMisses::cpu.data       696367                       # number of demand (read+write) misses (Count)
system.cpu.dcache.demandMisses::total          696367                       # number of demand (read+write) misses (Count)
system.cpu.dcache.overallMisses::cpu.data       696367                       # number of overall misses (Count)
system.cpu.dcache.overallMisses::total         696367                       # number of overall misses (Count)
system.cpu.dcache.demandMissLatency::cpu.data  61114129000                       # number of demand (read+write) miss ticks (Tick)
system.cpu.dcache.demandMissLatency::total  61114129000                       # number of demand (read+write) miss ticks (Tick)
system.cpu.dcache.overallMissLatency::cpu.data  61114129000                       # number of overall miss ticks (Tick)
system.cpu.dcache.overallMissLatency::total  61114129000                       # number of overall miss ticks (Tick)
system.cpu.dcache.demandAccesses::cpu.data     17645020                       # number of demand (read+write) accesses (Count)
system.cpu.dcache.demandAccesses::total      17645020                       # number of demand (read+write) accesses (Count)
system.cpu.dcache.overallAccesses::cpu.data     17645020                       # number of overall (read+write) accesses (Count)
system.cpu.dcache.overallAccesses::total     17645020                       # number of overall (read+write) accesses (Count)
system.cpu.dcache.demandMissRate::cpu.data     0.039465                       # miss rate for demand accesses (Ratio)
system.cpu.dcache.demandMissRate::total      0.039465                       # miss rate for demand accesses (Ratio)
system.cpu.dcache.overallMissRate::cpu.data     0.039465                       # miss rate for overall accesses (Ratio)
system.cpu.dcache.overallMissRate::total     0.039465                       # miss rate for overall accesses (Ratio)
system.cpu.dcache.demandAvgMissLatency::cpu.data 87761.380134                       # average overall miss latency in ticks ((Tick/Count))
system.cpu.dcache.demandAvgMissLatency::total 87761.380134                       # average overall miss latency in ticks ((Tick/Count))
system.cpu.dcache.overallAvgMissLatency::cpu.data 87761.380134                       # average overall miss latency ((Tick/Count))
system.cpu.dcache.overallAvgMissLatency::total 87761.380134                       # average overall miss latency ((Tick/Count))
system.cpu.dcache.blockedCycles::no_mshrs            0                       # number of cycles access was blocked (Cycle)
system.cpu.dcache.blockedCycles::no_targets            0                       # number of cycles access was blocked (Cycle)
system.cpu.dcache.blockedCauses::no_mshrs            0                       # number of times access was blocked (Count)
system.cpu.dcache.blockedCauses::no_targets            0                       # number of times access was blocked (Count)
system.cpu.dcache.avgBlocked::no_mshrs            nan                       # average number of cycles each access was blocked ((Cycle/Count))
system.cpu.dcache.avgBlocked::no_targets          nan                       # average number of cycles each access was blocked ((Cycle/Count))
system.cpu.dcache.writebacks::writebacks       681275                       # number of writebacks (Count)
system.cpu.dcache.writebacks::total            681275                       # number of writebacks (Count)
system.cpu.dcache.demandMshrMisses::cpu.data       696367                       # number of demand (read+write) MSHR misses (Count)
system.cpu.dcache.demandMshrMisses::total       696367                       # number of demand (read+write) MSHR misses (Count)
system.cpu.dcache.overallMshrMisses::cpu.data       696367                       # number of overall MSHR misses (Count)
system.cpu.dcache.overallMshrMisses::total       696367                       # number of overall MSHR misses (Count)
system.cpu.dcache.demandMshrMissLatency::cpu.data  59721395000                       # number of demand (read+write) MSHR miss ticks (Tick)
system.cpu.dcache.demandMshrMissLatency::total  59721395000                       # number of demand (read+write) MSHR miss ticks (Tick)
system.cpu.dcache.overallMshrMissLatency::cpu.data  59721395000                       # number of overall MSHR miss ticks (Tick)
system.cpu.dcache.overallMshrMissLatency::total  59721395000                       # number of overall MSHR miss ticks (Tick)
system.cpu.dcache.demandMshrMissRate::cpu.data     0.039465                       # mshr miss ratio for demand accesses (Ratio)
system.cpu.dcache.demandMshrMissRate::total     0.039465                       # mshr miss ratio for demand accesses (Ratio)
system.cpu.dcache.overallMshrMissRate::cpu.data     0.039465                       # mshr miss ratio for overall accesses (Ratio)
system.cpu.dcache.overallMshrMissRate::total     0.039465                       # mshr miss ratio for overall accesses (Ratio)
system.cpu.dcache.demandAvgMshrMissLatency::cpu.data 85761.380134                       # average overall mshr miss latency ((Tick/Count))
system.cpu.dcache.demandAvgMshrMissLatency::total 85761.380134                       # average overall mshr miss latency ((Tick/Count))
system.cpu.dcache.overallAvgMshrMissLatency::cpu.data 85761.380134                       # average overall mshr miss latency ((Tick/Count))
system.cpu.dcache.overallAvgMshrMissLatency::total 85761.380134                       # average overall mshr miss latency ((Tick/Count))
system.cpu.dcache.replacements                 695343                       # number of replacements (Count)
system.cpu.dcache.LockedRMWReadReq.hits::cpu.data            6                       # number of LockedRMWReadReq hits (Count)
system.cpu.dcache.LockedRMWReadReq.hits::total            6                       # number of LockedRMWReadReq hits (Count)
system.cpu.dcache.LockedRMWReadReq.accesses::cpu.data            6                       # number of LockedRMWReadReq accesses(hits+misses) (Count)
system.cpu.dcache.LockedRMWReadReq.accesses::total            6                       # number of LockedRMWReadReq accesses(hits+misses) (Count)
system.cpu.dcache.LockedRMWReadReq.mshrMissLatency::cpu.data        12000                       # number of LockedRMWReadReq MSHR miss ticks (Tick)
system.cpu.dcache.LockedRMWReadReq.mshrMissLatency::total        12000                       # number of LockedRMWReadReq MSHR miss ticks (Tick)
system.cpu.dcache.LockedRMWReadReq.avgMshrMissLatency::cpu.data          inf                       # average LockedRMWReadReq mshr miss latency ((Tick/Count))
system.cpu.dcache.LockedRMWReadReq.avgMshrMissLatency::total          inf                       # average LockedRMWReadReq mshr miss latency ((Tick/Count))
system.cpu.dcache.LockedRMWWriteReq.hits::cpu.data            6                       # number of LockedRMWWriteReq hits (Count)
system.cpu.dcache.LockedRMWWriteReq.hits::total            6                       # number of LockedRMWWriteReq hits (Count)
system.cpu.dcache.LockedRMWWriteReq.accesses::cpu.data            6                       # number of LockedRMWWriteReq accesses(hits+misses) (Count)
system.cpu.dcache.LockedRMWWriteReq.accesses::total            6                       # number of LockedRMWWriteReq accesses(hits+misses) (Count)
system.cpu.dcache.ReadReq.hits::cpu.data     13211073                       # number of ReadReq hits (Count)
system.cpu.dcache.ReadReq.hits::total        13211073                       # number of ReadReq hits (Count)
system.cpu.dcache.ReadReq.misses::cpu.data        17787                       # number of ReadReq misses (Count)
system.cpu.dcache.ReadReq.misses::total         17787                       # number of ReadReq misses (Count)
system.cpu.dcache.ReadReq.missLatency::cpu.data   1553719000                       # number of ReadReq miss ticks (Tick)
system.cpu.dcache.ReadReq.missLatency::total   1553719000                       # number of ReadReq miss ticks (Tick)
system.cpu.dcache.ReadReq.accesses::cpu.data     13228860                       # number of ReadReq accesses(hits+misses) (Count)
system.cpu.dcache.ReadReq.accesses::total     13228860                       # number of ReadReq accesses(hits+misses) (Count)
system.cpu.dcache.ReadReq.missRate::cpu.data     0.001345                       # miss rate for ReadReq accesses (Ratio)
system.cpu.dcache.ReadReq.missRate::total     0.001345                       # miss rate for ReadReq accesses (Ratio)
system.cpu.dcache.ReadReq.avgMissLatency::cpu.data 87351.380222                       # average ReadReq miss latency ((Tick/Count))
system.cpu.dcache.ReadReq.avgMissLatency::total 87351.380222                       # average ReadReq miss latency ((Tick/Count))
system.cpu.dcache.ReadReq.mshrMisses::cpu.data        17787                       # number of ReadReq MSHR misses (Count)
system.cpu.dcache.ReadReq.mshrMisses::total        17787                       # number of ReadReq MSHR misses (Count)
system.cpu.dcache.ReadReq.mshrMissLatency::cpu.data   1518145000                       # number of ReadReq MSHR miss ticks (Tick)
system.cpu.dcache.ReadReq.mshrMissLatency::total   1518145000                       # number of ReadReq MSHR miss ticks (Tick)
system.cpu.dcache.ReadReq.mshrMissRate::cpu.data     0.001345                       # mshr miss rate for ReadReq accesses (Ratio)
system.cpu.dcache.ReadReq.mshrMissRate::total     0.001345                       # mshr miss rate for ReadReq accesses (Ratio)
system.cpu.dcache.ReadReq.avgMshrMissLatency::cpu.data 85351.380222                       # average ReadReq mshr miss latency ((Tick/Count))
system.cpu.dcache.ReadReq.avgMshrMissLatency::total 85351.380222                       # average ReadReq mshr miss latency ((Tick/Count))
system.cpu.dcache.WriteReq.hits::cpu.data      3737580                       # number of WriteReq hits (Count)
system.cpu.dcache.WriteReq.hits::total        3737580                       # number of WriteReq hits (Count)
system.cpu.dcache.WriteReq.misses::cpu.data       678580                       # number of WriteReq misses (Count)
system.cpu.dcache.WriteReq.misses::total       678580                       # number of WriteReq misses (Count)
system.cpu.dcache.WriteReq.missLatency::cpu.data  59560410000                       # number of WriteReq miss ticks (Tick)
system.cpu.dcache.WriteReq.missLatency::total  59560410000                       # number of WriteReq miss ticks (Tick)
system.cpu.dcache.WriteReq.accesses::cpu.data      4416160                       # number of WriteReq accesses(hits+misses) (Count)
system.cpu.dcache.WriteReq.accesses::total      4416160                       # number of WriteReq accesses(hits+misses) (Count)
system.cpu.dcache.WriteReq.missRate::cpu.data     0.153658                       # miss rate for WriteReq accesses (Ratio)
system.cpu.dcache.WriteReq.missRate::total     0.153658                       # miss rate for WriteReq accesses (Ratio)
system.cpu.dcache.WriteReq.avgMissLatency::cpu.data 87772.127089                       # average WriteReq miss latency ((Tick/Count))
system.cpu.dcache.WriteReq.avgMissLatency::total 87772.127089                       # average WriteReq miss latency ((Tick/Count))
system.cpu.dcache.WriteReq.mshrMisses::cpu.data       678580                       # number of WriteReq MSHR misses (Count)
system.cpu.dcache.WriteReq.mshrMisses::total       678580                       # number of WriteReq MSHR misses (Count)
system.cpu.dcache.WriteReq.mshrMissLatency::cpu.data  58203250000                       # number of WriteReq MSHR miss ticks (Tick)
system.cpu.dcache.WriteReq.mshrMissLatency::total  58203250000                       # number of WriteReq MSHR miss ticks (Tick)
system.cpu.dcache.WriteReq.mshrMissRate::cpu.data     0.153658                       # mshr miss rate for WriteReq accesses (Ratio)
system.cpu.dcache.WriteReq.mshrMissRate::total     0.153658                       # mshr miss rate for WriteReq accesses (Ratio)
system.cpu.dcache.WriteReq.avgMshrMissLatency::cpu.data 85772.127089                       # average WriteReq mshr miss latency ((Tick/Count))
system.cpu.dcache.WriteReq.avgMshrMissLatency::total 85772.127089                       # average WriteReq mshr miss latency ((Tick/Count))
system.cpu.dcache.power_state.pwrStateResidencyTicks::UNDEFINED 151661831000                       # Cumulative time (in ticks) in various power states (Tick)
system.cpu.dcache.tags.tagsInUse          1017.613419                       # Average ticks per tags in use ((Tick/Count))
system.cpu.dcache.tags.totalRefs             17645032                       # Total number of references to valid blocks. (Count)
system.cpu.dcache.tags.sampledRefs             696367                       # Sample count of references to valid blocks. (Count)
system.cpu.dcache.tags.avgRefs              25.338696                       # Average number of references to valid blocks. ((Count/Count))
system.cpu.dcache.tags.warmupTick              218000                       # The tick when the warmup percentage was hit. (Tick)
system.cpu.dcache.tags.occupancies::cpu.data  1017.613419                       # Average occupied blocks per tick, per requestor ((Count/Tick))
system.cpu.dcache.tags.avgOccs::cpu.data     0.993763                       # Average percentage of cache occupancy ((Ratio/Tick))
system.cpu.dcache.tags.avgOccs::total        0.993763                       # Average percentage of cache occupancy ((Ratio/Tick))
system.cpu.dcache.tags.occupanciesTaskId::1024         1024                       # Occupied blocks per task id (Count)
system.cpu.dcache.tags.ageTaskId_1024::0           27                       # Occupied blocks per task id, per block age (Count)
system.cpu.dcache.tags.ageTaskId_1024::1          258                       # Occupied blocks per task id, per block age (Count)
system.cpu.dcache.tags.ageTaskId_1024::2          346                       # Occupied blocks per task id, per block age (Count)
system.cpu.dcache.tags.ageTaskId_1024::3          393                       # Occupied blocks per task id, per block age (Count)
system.cpu.dcache.tags.ratioOccsTaskId::1024            1                       # Ratio of occupied blocks and all blocks, per task id (Ratio)
system.cpu.dcache.tags.tagAccesses           35986431                       # Number of tag accesses (Count)
system.cpu.dcache.tags.dataAccesses          35986431                       # Number of data accesses (Count)
system.cpu.dcache.tags.power_state.pwrStateResidencyTicks::UNDEFINED 151661831000                       # Cumulative time (in ticks) in various power states (Tick)
system.cpu.exec_context.thread_0.numInsts     25399392                       # Number of instructions committed (Count)
system.cpu.exec_context.thread_0.numOps      43904756                       # Number of ops (including micro ops) committed (Count)
system.cpu.exec_context.thread_0.numIntAluAccesses     43841044                       # Number of integer alu accesses (Count)
system.cpu.exec_context.thread_0.numFpAluAccesses        89485                       # Number of float alu accesses (Count)
system.cpu.exec_context.thread_0.numVecAluAccesses            0                       # Number of vector alu accesses (Count)
system.cpu.exec_context.thread_0.numCallsReturns        20942                       # Number of times a function call or return occured (Count)
system.cpu.exec_context.thread_0.numCondCtrlInsts      2428452                       # Number of instructions that are conditional controls (Count)
system.cpu.exec_context.thread_0.numIntInsts     43841044                       # Number of integer instructions (Count)
system.cpu.exec_context.thread_0.numFpInsts        89485                       # Number of float instructions (Count)
system.cpu.exec_context.thread_0.numVecInsts            0                       # Number of vector instructions (Count)
system.cpu.exec_context.thread_0.numIntRegReads     51742138                       # Number of times the integer registers were read (Count)
system.cpu.exec_context.thread_0.numIntRegWrites     32473211                       # Number of times the integer registers were written (Count)
system.cpu.exec_context.thread_0.numFpRegReads       122216                       # Number of times the floating registers were read (Count)
system.cpu.exec_context.thread_0.numFpRegWrites        65689                       # Number of times the floating registers were written (Count)
system.cpu.exec_context.thread_0.numVecRegReads            0                       # Number of times the vector registers were read (Count)
system.cpu.exec_context.thread_0.numVecRegWrites            0                       # Number of times the vector registers were written (Count)
system.cpu.exec_context.thread_0.numVecPredRegReads            0                       # Number of times the predicate registers were read (Count)
system.cpu.exec_context.thread_0.numVecPredRegWrites            0                       # Number of times the predicate registers were written (Count)
system.cpu.exec_context.thread_0.numCCRegReads     12832915                       # Number of times the CC registers were read (Count)
system.cpu.exec_context.thread_0.numCCRegWrites     14493306                       # Number of times the CC registers were written (Count)
system.cpu.exec_context.thread_0.numMiscRegReads     26815200                       # Number of times the Misc registers were read (Count)
system.cpu.exec_context.thread_0.numMiscRegWrites          693                       # Number of times the Misc registers were written (Count)
system.cpu.exec_context.thread_0.numMemRefs     17645476                       # Number of memory refs (Count)
system.cpu.exec_context.thread_0.numLoadInsts     13229043                       # Number of load instructions (Count)
system.cpu.exec_context.thread_0.numStoreInsts      4416433                       # Number of store instructions (Count)
system.cpu.exec_context.thread_0.numIdleCycles     0.001000                       # Number of idle cycles (Cycle)
system.cpu.exec_context.thread_0.numBusyCycles 151661830.999000                       # Number of busy cycles (Cycle)
system.cpu.exec_context.thread_0.notIdleFraction     1.000000                       # Percentage of non-idle cycles (Ratio)
system.cpu.exec_context.thread_0.idleFraction     0.000000                       # Percentage of idle cycles (Ratio)
system.cpu.exec_context.thread_0.numBranches      4592172                       # Number of branches fetched (Count)
system.cpu.exec_context.thread_0.statExecutedInstType::No_OpClass         8914      0.02%      0.02% # Class of executed instruction. (Count)
system.cpu.exec_context.thread_0.statExecutedInstType::IntAlu     26165517     59.60%     59.62% # Class of executed instruction. (Count)
system.cpu.exec_context.thread_0.statExecutedInstType::IntMult           27      0.00%     59.62% # Class of executed instruction. (Count)
system.cpu.exec_context.thread_0.statExecutedInstType::IntDiv        34601      0.08%     59.69% # Class of executed instruction. (Count)
system.cpu.exec_context.thread_0.statExecutedInstType::FloatAdd         3809      0.01%     59.70% # Class of executed instruction. (Count)
system.cpu.exec_context.thread_0.statExecutedInstType::FloatCmp            0      0.00%     59.70% # Class of executed instruction. (Count)
system.cpu.exec_context.thread_0.statExecutedInstType::FloatCvt         1232      0.00%     59.71% # Class of executed instruction. (Count)
system.cpu.exec_context.thread_0.statExecutedInstType::FloatMult            0      0.00%     59.71% # Class of executed instruction. (Count)
system.cpu.exec_context.thread_0.statExecutedInstType::FloatMultAcc            0      0.00%     59.71% # Class of executed instruction. (Count)
system.cpu.exec_context.thread_0.statExecutedInstType::FloatDiv            0      0.00%     59.71% # Class of executed instruction. (Count)
system.cpu.exec_context.thread_0.statExecutedInstType::FloatMisc            0      0.00%     59.71% # Class of executed instruction. (Count)
system.cpu.exec_context.thread_0.statExecutedInstType::FloatSqrt            0      0.00%     59.71% # Class of executed instruction. (Count)
system.cpu.exec_context.thread_0.statExecutedInstType::SimdAdd         6044      0.01%     59.72% # Class of executed instruction. (Count)
system.cpu.exec_context.thread_0.statExecutedInstType::SimdAddAcc            0      0.00%     59.72% # Class of executed instruction. (Count)
system.cpu.exec_context.thread_0.statExecutedInstType::SimdAlu        13927      0.03%     59.75% # Class of executed instruction. (Count)
system.cpu.exec_context.thread_0.statExecutedInstType::SimdCmp            0      0.00%     59.75% # Class of executed instruction. (Count)
system.cpu.exec_context.thread_0.statExecutedInstType::SimdCvt        11772      0.03%     59.78% # Class of executed instruction. (Count)
system.cpu.exec_context.thread_0.statExecutedInstType::SimdMisc         6889      0.02%     59.79% # Class of executed instruction. (Count)
system.cpu.exec_context.thread_0.statExecutedInstType::SimdMult            0      0.00%     59.79% # Class of executed instruction. (Count)
system.cpu.exec_context.thread_0.statExecutedInstType::SimdMultAcc            0      0.00%     59.79% # Class of executed instruction. (Count)
system.cpu.exec_context.thread_0.statExecutedInstType::SimdShift          913      0.00%     59.80% # Class of executed instruction. (Count)
system.cpu.exec_context.thread_0.statExecutedInstType::SimdShiftAcc            0      0.00%     59.80% # Class of executed instruction. (Count)
system.cpu.exec_context.thread_0.statExecutedInstType::SimdDiv            0      0.00%     59.80% # Class of executed instruction. (Count)
system.cpu.exec_context.thread_0.statExecutedInstType::SimdSqrt            0      0.00%     59.80% # Class of executed instruction. (Count)
system.cpu.exec_context.thread_0.statExecutedInstType::SimdFloatAdd            0      0.00%     59.80% # Class of executed instruction. (Count)
system.cpu.exec_context.thread_0.statExecutedInstType::SimdFloatAlu            0      0.00%     59.80% # Class of executed instruction. (Count)
system.cpu.exec_context.thread_0.statExecutedInstType::SimdFloatCmp            0      0.00%     59.80% # Class of executed instruction. (Count)
system.cpu.exec_context.thread_0.statExecutedInstType::SimdFloatCvt         5004      0.01%     59.81% # Class of executed instruction. (Count)
system.cpu.exec_context.thread_0.statExecutedInstType::SimdFloatDiv            0      0.00%     59.81% # Class of executed instruction. (Count)
system.cpu.exec_context.thread_0.statExecutedInstType::SimdFloatMisc            0      0.00%     59.81% # Class of executed instruction. (Count)
system.cpu.exec_context.thread_0.statExecutedInstType::SimdFloatMult          168      0.00%     59.81% # Class of executed instruction. (Count)
system.cpu.exec_context.thread_0.statExecutedInstType::SimdFloatMultAcc            0      0.00%     59.81% # Class of executed instruction. (Count)
system.cpu.exec_context.thread_0.statExecutedInstType::SimdFloatSqrt          999      0.00%     59.81% # Class of executed instruction. (Count)
system.cpu.exec_context.thread_0.statExecutedInstType::SimdReduceAdd            0      0.00%     59.81% # Class of executed instruction. (Count)
system.cpu.exec_context.thread_0.statExecutedInstType::SimdReduceAlu            0      0.00%     59.81% # Class of executed instruction. (Count)
system.cpu.exec_context.thread_0.statExecutedInstType::SimdReduceCmp            0      0.00%     59.81% # Class of executed instruction. (Count)
system.cpu.exec_context.thread_0.statExecutedInstType::SimdFloatReduceAdd            0      0.00%     59.81% # Class of executed instruction. (Count)
system.cpu.exec_context.thread_0.statExecutedInstType::SimdFloatReduceCmp            0      0.00%     59.81% # Class of executed instruction. (Count)
system.cpu.exec_context.thread_0.statExecutedInstType::SimdAes            0      0.00%     59.81% # Class of executed instruction. (Count)
system.cpu.exec_context.thread_0.statExecutedInstType::SimdAesMix            0      0.00%     59.81% # Class of executed instruction. (Count)
system.cpu.exec_context.thread_0.statExecutedInstType::SimdSha1Hash            0      0.00%     59.81% # Class of executed instruction. (Count)
system.cpu.exec_context.thread_0.statExecutedInstType::SimdSha1Hash2            0      0.00%     59.81% # Class of executed instruction. (Count)
system.cpu.exec_context.thread_0.statExecutedInstType::SimdSha256Hash            0      0.00%     59.81% # Class of executed instruction. (Count)
system.cpu.exec_context.thread_0.statExecutedInstType::SimdSha256Hash2            0      0.00%     59.81% # Class of executed instruction. (Count)
system.cpu.exec_context.thread_0.statExecutedInstType::SimdShaSigma2            0      0.00%     59.81% # Class of executed instruction. (Count)
system.cpu.exec_context.thread_0.statExecutedInstType::SimdShaSigma3            0      0.00%     59.81% # Class of executed instruction. (Count)
system.cpu.exec_context.thread_0.statExecutedInstType::SimdPredAlu            0      0.00%     59.81% # Class of executed instruction. (Count)
system.cpu.exec_context.thread_0.statExecutedInstType::MemRead     13206023     30.08%     89.89% # Class of executed instruction. (Count)
system.cpu.exec_context.thread_0.statExecutedInstType::MemWrite      4403054     10.03%     99.92% # Class of executed instruction. (Count)
system.cpu.exec_context.thread_0.statExecutedInstType::FloatMemRead        23020      0.05%     99.97% # Class of executed instruction. (Count)
system.cpu.exec_context.thread_0.statExecutedInstType::FloatMemWrite        13379      0.03%    100.00% # Class of executed instruction. (Count)
system.cpu.exec_context.thread_0.statExecutedInstType::IprAccess            0      0.00%    100.00% # Class of executed instruction. (Count)
system.cpu.exec_context.thread_0.statExecutedInstType::InstPrefetch            0      0.00%    100.00% # Class of executed instruction. (Count)
system.cpu.exec_context.thread_0.statExecutedInstType::total     43905292                       # Class of executed instruction. (Count)
system.cpu.icache.demandHits::cpu.inst       28203613                       # number of demand (read+write) hits (Count)
system.cpu.icache.demandHits::total          28203613                       # number of demand (read+write) hits (Count)
system.cpu.icache.overallHits::cpu.inst      28203613                       # number of overall hits (Count)
system.cpu.icache.overallHits::total         28203613                       # number of overall hits (Count)
system.cpu.icache.demandMisses::cpu.inst         3688                       # number of demand (read+write) misses (Count)
system.cpu.icache.demandMisses::total            3688                       # number of demand (read+write) misses (Count)
system.cpu.icache.overallMisses::cpu.inst         3688                       # number of overall misses (Count)
system.cpu.icache.overallMisses::total           3688                       # number of overall misses (Count)
system.cpu.icache.demandMissLatency::cpu.inst    243192000                       # number of demand (read+write) miss ticks (Tick)
system.cpu.icache.demandMissLatency::total    243192000                       # number of demand (read+write) miss ticks (Tick)
system.cpu.icache.overallMissLatency::cpu.inst    243192000                       # number of overall miss ticks (Tick)
system.cpu.icache.overallMissLatency::total    243192000                       # number of overall miss ticks (Tick)
system.cpu.icache.demandAccesses::cpu.inst     28207301                       # number of demand (read+write) accesses (Count)
system.cpu.icache.demandAccesses::total      28207301                       # number of demand (read+write) accesses (Count)
system.cpu.icache.overallAccesses::cpu.inst     28207301                       # number of overall (read+write) accesses (Count)
system.cpu.icache.overallAccesses::total     28207301                       # number of overall (read+write) accesses (Count)
system.cpu.icache.demandMissRate::cpu.inst     0.000131                       # miss rate for demand accesses (Ratio)
system.cpu.icache.demandMissRate::total      0.000131                       # miss rate for demand accesses (Ratio)
system.cpu.icache.overallMissRate::cpu.inst     0.000131                       # miss rate for overall accesses (Ratio)
system.cpu.icache.overallMissRate::total     0.000131                       # miss rate for overall accesses (Ratio)
system.cpu.icache.demandAvgMissLatency::cpu.inst 65941.431670                       # average overall miss latency in ticks ((Tick/Count))
system.cpu.icache.demandAvgMissLatency::total 65941.431670                       # average overall miss latency in ticks ((Tick/Count))
system.cpu.icache.overallAvgMissLatency::cpu.inst 65941.431670                       # average overall miss latency ((Tick/Count))
system.cpu.icache.overallAvgMissLatency::total 65941.431670                       # average overall miss latency ((Tick/Count))
system.cpu.icache.blockedCycles::no_mshrs            0                       # number of cycles access was blocked (Cycle)
system.cpu.icache.blockedCycles::no_targets            0                       # number of cycles access was blocked (Cycle)
system.cpu.icache.blockedCauses::no_mshrs            0                       # number of times access was blocked (Count)
system.cpu.icache.blockedCauses::no_targets            0                       # number of times access was blocked (Count)
system.cpu.icache.avgBlocked::no_mshrs            nan                       # average number of cycles each access was blocked ((Cycle/Count))
system.cpu.icache.avgBlocked::no_targets          nan                       # average number of cycles each access was blocked ((Cycle/Count))
system.cpu.icache.demandMshrMisses::cpu.inst         3688                       # number of demand (read+write) MSHR misses (Count)
system.cpu.icache.demandMshrMisses::total         3688                       # number of demand (read+write) MSHR misses (Count)
system.cpu.icache.overallMshrMisses::cpu.inst         3688                       # number of overall MSHR misses (Count)
system.cpu.icache.overallMshrMisses::total         3688                       # number of overall MSHR misses (Count)
system.cpu.icache.demandMshrMissLatency::cpu.inst    235816000                       # number of demand (read+write) MSHR miss ticks (Tick)
system.cpu.icache.demandMshrMissLatency::total    235816000                       # number of demand (read+write) MSHR miss ticks (Tick)
system.cpu.icache.overallMshrMissLatency::cpu.inst    235816000                       # number of overall MSHR miss ticks (Tick)
system.cpu.icache.overallMshrMissLatency::total    235816000                       # number of overall MSHR miss ticks (Tick)
system.cpu.icache.demandMshrMissRate::cpu.inst     0.000131                       # mshr miss ratio for demand accesses (Ratio)
system.cpu.icache.demandMshrMissRate::total     0.000131                       # mshr miss ratio for demand accesses (Ratio)
system.cpu.icache.overallMshrMissRate::cpu.inst     0.000131                       # mshr miss ratio for overall accesses (Ratio)
system.cpu.icache.overallMshrMissRate::total     0.000131                       # mshr miss ratio for overall accesses (Ratio)
system.cpu.icache.demandAvgMshrMissLatency::cpu.inst 63941.431670                       # average overall mshr miss latency ((Tick/Count))
system.cpu.icache.demandAvgMshrMissLatency::total 63941.431670                       # average overall mshr miss latency ((Tick/Count))
system.cpu.icache.overallAvgMshrMissLatency::cpu.inst 63941.431670                       # average overall mshr miss latency ((Tick/Count))
system.cpu.icache.overallAvgMshrMissLatency::total 63941.431670                       # average overall mshr miss latency ((Tick/Count))
system.cpu.icache.replacements                   3433                       # number of replacements (Count)
system.cpu.icache.ReadReq.hits::cpu.inst     28203613                       # number of ReadReq hits (Count)
system.cpu.icache.ReadReq.hits::total        28203613                       # number of ReadReq hits (Count)
system.cpu.icache.ReadReq.misses::cpu.inst         3688                       # number of ReadReq misses (Count)
system.cpu.icache.ReadReq.misses::total          3688                       # number of ReadReq misses (Count)
system.cpu.icache.ReadReq.missLatency::cpu.inst    243192000                       # number of ReadReq miss ticks (Tick)
system.cpu.icache.ReadReq.missLatency::total    243192000                       # number of ReadReq miss ticks (Tick)
system.cpu.icache.ReadReq.accesses::cpu.inst     28207301                       # number of ReadReq accesses(hits+misses) (Count)
system.cpu.icache.ReadReq.accesses::total     28207301                       # number of ReadReq accesses(hits+misses) (Count)
system.cpu.icache.ReadReq.missRate::cpu.inst     0.000131                       # miss rate for ReadReq accesses (Ratio)
system.cpu.icache.ReadReq.missRate::total     0.000131                       # miss rate for ReadReq accesses (Ratio)
system.cpu.icache.ReadReq.avgMissLatency::cpu.inst 65941.431670                       # average ReadReq miss latency ((Tick/Count))
system.cpu.icache.ReadReq.avgMissLatency::total 65941.431670                       # average ReadReq miss latency ((Tick/Count))
system.cpu.icache.ReadReq.mshrMisses::cpu.inst         3688                       # number of ReadReq MSHR misses (Count)
system.cpu.icache.ReadReq.mshrMisses::total         3688                       # number of ReadReq MSHR misses (Count)
system.cpu.icache.ReadReq.mshrMissLatency::cpu.inst    235816000                       # number of ReadReq MSHR miss ticks (Tick)
system.cpu.icache.ReadReq.mshrMissLatency::total    235816000                       # number of ReadReq MSHR miss ticks (Tick)
system.cpu.icache.ReadReq.mshrMissRate::cpu.inst     0.000131                       # mshr miss rate for ReadReq accesses (Ratio)
system.cpu.icache.ReadReq.mshrMissRate::total     0.000131                       # mshr miss rate for ReadReq accesses (Ratio)
system.cpu.icache.ReadReq.avgMshrMissLatency::cpu.inst 63941.431670                       # average ReadReq mshr miss latency ((Tick/Count))
system.cpu.icache.ReadReq.avgMshrMissLatency::total 63941.431670                       # average ReadReq mshr miss latency ((Tick/Count))
system.cpu.icache.power_state.pwrStateResidencyTicks::UNDEFINED 151661831000                       # Cumulative time (in ticks) in various power states (Tick)
system.cpu.icache.tags.tagsInUse           249.610613                       # Average ticks per tags in use ((Tick/Count))
system.cpu.icache.tags.totalRefs             28207301                       # Total number of references to valid blocks. (Count)
system.cpu.icache.tags.sampledRefs               3688                       # Sample count of references to valid blocks. (Count)
system.cpu.icache.tags.avgRefs            7648.400488                       # Average number of references to valid blocks. ((Count/Count))
system.cpu.icache.tags.warmupTick              107000                       # The tick when the warmup percentage was hit. (Tick)
system.cpu.icache.tags.occupancies::cpu.inst   249.610613                       # Average occupied blocks per tick, per requestor ((Count/Tick))
system.cpu.icache.tags.avgOccs::cpu.inst     0.975041                       # Average percentage of cache occupancy ((Ratio/Tick))
system.cpu.icache.tags.avgOccs::total        0.975041                       # Average percentage of cache occupancy ((Ratio/Tick))
system.cpu.icache.tags.occupanciesTaskId::1024          255                       # Occupied blocks per task id (Count)
system.cpu.icache.tags.ageTaskId_1024::0           35                       # Occupied blocks per task id, per block age (Count)
system.cpu.icache.tags.ageTaskId_1024::1           59                       # Occupied blocks per task id, per block age (Count)
system.cpu.icache.tags.ageTaskId_1024::4          161                       # Occupied blocks per task id, per block age (Count)
system.cpu.icache.tags.ratioOccsTaskId::1024     0.996094                       # Ratio of occupied blocks and all blocks, per task id (Ratio)
system.cpu.icache.tags.tagAccesses           56418290                       # Number of tag accesses (Count)
system.cpu.icache.tags.dataAccesses          56418290                       # Number of data accesses (Count)
system.cpu.icache.tags.power_state.pwrStateResidencyTicks::UNDEFINED 151661831000                       # Cumulative time (in ticks) in various power states (Tick)
system.cpu.interrupts.clk_domain.clock          16000                       # Clock period in ticks (Tick)
system.cpu.mmu.dtb.rdAccesses                13229072                       # TLB accesses on read requests (Count)
system.cpu.mmu.dtb.wrAccesses                 4416438                       # TLB accesses on write requests (Count)
system.cpu.mmu.dtb.rdMisses                      2227                       # TLB misses on read requests (Count)
system.cpu.mmu.dtb.wrMisses                     29005                       # TLB misses on write requests (Count)
system.cpu.mmu.dtb.walker.power_state.pwrStateResidencyTicks::UNDEFINED 151661831000                       # Cumulative time (in ticks) in various power states (Tick)
system.cpu.mmu.itb.rdAccesses                       0                       # TLB accesses on read requests (Count)
system.cpu.mmu.itb.wrAccesses                28207405                       # TLB accesses on write requests (Count)
system.cpu.mmu.itb.rdMisses                         0                       # TLB misses on read requests (Count)
system.cpu.mmu.itb.wrMisses                       382                       # TLB misses on write requests (Count)
system.cpu.mmu.itb.walker.power_state.pwrStateResidencyTicks::UNDEFINED 151661831000                       # Cumulative time (in ticks) in various power states (Tick)
system.cpu.power_state.pwrStateResidencyTicks::ON 151661831000                       # Cumulative time (in ticks) in various power states (Tick)
system.cpu.thread_0.numInsts                        0                       # Number of Instructions committed (Count)
system.cpu.thread_0.numOps                          0                       # Number of Ops committed (Count)
system.cpu.thread_0.numMemRefs                      0                       # Number of Memory References (Count)
system.cpu.workload.numSyscalls                    58                       # Number of system calls (Count)
system.l2bus.transDist::ReadResp                21475                       # Transaction distribution (Count)
system.l2bus.transDist::WritebackDirty        1220608                       # Transaction distribution (Count)
system.l2bus.transDist::CleanEvict             555170                       # Transaction distribution (Count)
system.l2bus.transDist::ReadExReq              678580                       # Transaction distribution (Count)
system.l2bus.transDist::ReadExResp             678580                       # Transaction distribution (Count)
system.l2bus.transDist::ReadSharedReq           21475                       # Transaction distribution (Count)
system.l2bus.pktCount_system.cpu.icache.mem_side_port::system.l2cache.cpu_side_port        10809                       # Packet count per connected requestor and responder (Count)
system.l2bus.pktCount_system.cpu.dcache.mem_side_port::system.l2cache.cpu_side_port      2088077                       # Packet count per connected requestor and responder (Count)
system.l2bus.pktCount::total                  2098886                       # Packet count per connected requestor and responder (Count)
system.l2bus.pktSize_system.cpu.icache.mem_side_port::system.l2cache.cpu_side_port       236032                       # Cumulative packet size per connected requestor and responder (Byte)
system.l2bus.pktSize_system.cpu.dcache.mem_side_port::system.l2cache.cpu_side_port     88169088                       # Cumulative packet size per connected requestor and responder (Byte)
system.l2bus.pktSize::total                  88405120                       # Cumulative packet size per connected requestor and responder (Byte)
system.l2bus.snoops                           1077002                       # Total snoops (Count)
system.l2bus.snoopTraffic                    34517312                       # Total snoop traffic (Byte)
system.l2bus.snoopFanout::samples             1777057                       # Request fanout histogram (Count)
system.l2bus.snoopFanout::mean               0.300192                       # Request fanout histogram (Count)
system.l2bus.snoopFanout::stdev              0.458479                       # Request fanout histogram (Count)
system.l2bus.snoopFanout::underflows                0      0.00%      0.00% # Request fanout histogram (Count)
system.l2bus.snoopFanout::0                   1243710     69.99%     69.99% # Request fanout histogram (Count)
system.l2bus.snoopFanout::1                    533235     30.01%     99.99% # Request fanout histogram (Count)
system.l2bus.snoopFanout::2                       112      0.01%    100.00% # Request fanout histogram (Count)
system.l2bus.snoopFanout::overflows                 0      0.00%    100.00% # Request fanout histogram (Count)
system.l2bus.snoopFanout::min_value                 0                       # Request fanout histogram (Count)
system.l2bus.snoopFanout::max_value                 2                       # Request fanout histogram (Count)
system.l2bus.snoopFanout::total               1777057                       # Request fanout histogram (Count)
system.l2bus.power_state.pwrStateResidencyTicks::UNDEFINED 151661831000                       # Cumulative time (in ticks) in various power states (Tick)
system.l2bus.reqLayer0.occupancy           2761381000                       # Layer occupancy (ticks) (Tick)
system.l2bus.reqLayer0.utilization                0.0                       # Layer utilization (Ratio)
system.l2bus.respLayer0.occupancy            11064000                       # Layer occupancy (ticks) (Tick)
system.l2bus.respLayer0.utilization               0.0                       # Layer utilization (Ratio)
system.l2bus.respLayer1.occupancy          2089101000                       # Layer occupancy (ticks) (Tick)
system.l2bus.respLayer1.utilization               0.0                       # Layer utilization (Ratio)
system.l2bus.snoop_filter.totRequests         1398831                       # Total number of requests made to the snoop filter. (Count)
system.l2bus.snoop_filter.hitSingleRequests       698776                       # Number of requests hitting in the snoop filter with a single holder of the requested data. (Count)
system.l2bus.snoop_filter.hitMultiRequests          120                       # Number of requests hitting in the snoop filter with multiple (>1) holders of the requested data. (Count)
system.l2bus.snoop_filter.totSnoops            533227                       # Total number of snoops made to the snoop filter. (Count)
system.l2bus.snoop_filter.hitSingleSnoops       533115                       # Number of snoops hitting in the snoop filter with a single holder of the requested data. (Count)
system.l2bus.snoop_filter.hitMultiSnoops          112                       # Number of snoops hitting in the snoop filter with multiple (>1) holders of the requested data. (Count)
system.l2cache.demandHits::cpu.inst              1814                       # number of demand (read+write) hits (Count)
system.l2cache.demandHits::cpu.data            140959                       # number of demand (read+write) hits (Count)
system.l2cache.demandHits::total               142773                       # number of demand (read+write) hits (Count)
system.l2cache.overallHits::cpu.inst             1814                       # number of overall hits (Count)
system.l2cache.overallHits::cpu.data           140959                       # number of overall hits (Count)
system.l2cache.overallHits::total              142773                       # number of overall hits (Count)
system.l2cache.demandMisses::cpu.inst            1874                       # number of demand (read+write) misses (Count)
system.l2cache.demandMisses::cpu.data          555408                       # number of demand (read+write) misses (Count)
system.l2cache.demandMisses::total             557282                       # number of demand (read+write) misses (Count)
system.l2cache.overallMisses::cpu.inst           1874                       # number of overall misses (Count)
system.l2cache.overallMisses::cpu.data         555408                       # number of overall misses (Count)
system.l2cache.overallMisses::total            557282                       # number of overall misses (Count)
system.l2cache.demandMissLatency::cpu.inst    186653000                       # number of demand (read+write) miss ticks (Tick)
system.l2cache.demandMissLatency::cpu.data  54592065000                       # number of demand (read+write) miss ticks (Tick)
system.l2cache.demandMissLatency::total   54778718000                       # number of demand (read+write) miss ticks (Tick)
system.l2cache.overallMissLatency::cpu.inst    186653000                       # number of overall miss ticks (Tick)
system.l2cache.overallMissLatency::cpu.data  54592065000                       # number of overall miss ticks (Tick)
system.l2cache.overallMissLatency::total  54778718000                       # number of overall miss ticks (Tick)
system.l2cache.demandAccesses::cpu.inst          3688                       # number of demand (read+write) accesses (Count)
system.l2cache.demandAccesses::cpu.data        696367                       # number of demand (read+write) accesses (Count)
system.l2cache.demandAccesses::total           700055                       # number of demand (read+write) accesses (Count)
system.l2cache.overallAccesses::cpu.inst         3688                       # number of overall (read+write) accesses (Count)
system.l2cache.overallAccesses::cpu.data       696367                       # number of overall (read+write) accesses (Count)
system.l2cache.overallAccesses::total          700055                       # number of overall (read+write) accesses (Count)
system.l2cache.demandMissRate::cpu.inst      0.508134                       # miss rate for demand accesses (Ratio)
system.l2cache.demandMissRate::cpu.data      0.797579                       # miss rate for demand accesses (Ratio)
system.l2cache.demandMissRate::total         0.796055                       # miss rate for demand accesses (Ratio)
system.l2cache.overallMissRate::cpu.inst     0.508134                       # miss rate for overall accesses (Ratio)
system.l2cache.overallMissRate::cpu.data     0.797579                       # miss rate for overall accesses (Ratio)
system.l2cache.overallMissRate::total        0.796055                       # miss rate for overall accesses (Ratio)
system.l2cache.demandAvgMissLatency::cpu.inst 99601.387407                       # average overall miss latency in ticks ((Tick/Count))
system.l2cache.demandAvgMissLatency::cpu.data 98291.823308                       # average overall miss latency in ticks ((Tick/Count))
system.l2cache.demandAvgMissLatency::total 98296.227045                       # average overall miss latency in ticks ((Tick/Count))
system.l2cache.overallAvgMissLatency::cpu.inst 99601.387407                       # average overall miss latency ((Tick/Count))
system.l2cache.overallAvgMissLatency::cpu.data 98291.823308                       # average overall miss latency ((Tick/Count))
system.l2cache.overallAvgMissLatency::total 98296.227045                       # average overall miss latency ((Tick/Count))
system.l2cache.blockedCycles::no_mshrs              0                       # number of cycles access was blocked (Cycle)
system.l2cache.blockedCycles::no_targets            0                       # number of cycles access was blocked (Cycle)
system.l2cache.blockedCauses::no_mshrs              0                       # number of times access was blocked (Count)
system.l2cache.blockedCauses::no_targets            0                       # number of times access was blocked (Count)
system.l2cache.avgBlocked::no_mshrs               nan                       # average number of cycles each access was blocked ((Cycle/Count))
system.l2cache.avgBlocked::no_targets             nan                       # average number of cycles each access was blocked ((Cycle/Count))
system.l2cache.writebacks::writebacks          539333                       # number of writebacks (Count)
system.l2cache.writebacks::total               539333                       # number of writebacks (Count)
system.l2cache.demandMshrMisses::cpu.inst         1874                       # number of demand (read+write) MSHR misses (Count)
system.l2cache.demandMshrMisses::cpu.data       555408                       # number of demand (read+write) MSHR misses (Count)
system.l2cache.demandMshrMisses::total         557282                       # number of demand (read+write) MSHR misses (Count)
system.l2cache.overallMshrMisses::cpu.inst         1874                       # number of overall MSHR misses (Count)
system.l2cache.overallMshrMisses::cpu.data       555408                       # number of overall MSHR misses (Count)
system.l2cache.overallMshrMisses::total        557282                       # number of overall MSHR misses (Count)
system.l2cache.demandMshrMissLatency::cpu.inst    149173000                       # number of demand (read+write) MSHR miss ticks (Tick)
system.l2cache.demandMshrMissLatency::cpu.data  43483905000                       # number of demand (read+write) MSHR miss ticks (Tick)
system.l2cache.demandMshrMissLatency::total  43633078000                       # number of demand (read+write) MSHR miss ticks (Tick)
system.l2cache.overallMshrMissLatency::cpu.inst    149173000                       # number of overall MSHR miss ticks (Tick)
system.l2cache.overallMshrMissLatency::cpu.data  43483905000                       # number of overall MSHR miss ticks (Tick)
system.l2cache.overallMshrMissLatency::total  43633078000                       # number of overall MSHR miss ticks (Tick)
system.l2cache.demandMshrMissRate::cpu.inst     0.508134                       # mshr miss ratio for demand accesses (Ratio)
system.l2cache.demandMshrMissRate::cpu.data     0.797579                       # mshr miss ratio for demand accesses (Ratio)
system.l2cache.demandMshrMissRate::total     0.796055                       # mshr miss ratio for demand accesses (Ratio)
system.l2cache.overallMshrMissRate::cpu.inst     0.508134                       # mshr miss ratio for overall accesses (Ratio)
system.l2cache.overallMshrMissRate::cpu.data     0.797579                       # mshr miss ratio for overall accesses (Ratio)
system.l2cache.overallMshrMissRate::total     0.796055                       # mshr miss ratio for overall accesses (Ratio)
system.l2cache.demandAvgMshrMissLatency::cpu.inst 79601.387407                       # average overall mshr miss latency ((Tick/Count))
system.l2cache.demandAvgMshrMissLatency::cpu.data 78291.823308                       # average overall mshr miss latency ((Tick/Count))
system.l2cache.demandAvgMshrMissLatency::total 78296.227045                       # average overall mshr miss latency ((Tick/Count))
system.l2cache.overallAvgMshrMissLatency::cpu.inst 79601.387407                       # average overall mshr miss latency ((Tick/Count))
system.l2cache.overallAvgMshrMissLatency::cpu.data 78291.823308                       # average overall mshr miss latency ((Tick/Count))
system.l2cache.overallAvgMshrMissLatency::total 78296.227045                       # average overall mshr miss latency ((Tick/Count))
system.l2cache.replacements                   1077002                       # number of replacements (Count)
system.l2cache.CleanEvict.mshrMisses::writebacks         8581                       # number of CleanEvict MSHR misses (Count)
system.l2cache.CleanEvict.mshrMisses::total         8581                       # number of CleanEvict MSHR misses (Count)
system.l2cache.CleanEvict.mshrMissRate::writebacks          inf                       # mshr miss rate for CleanEvict accesses (Ratio)
system.l2cache.CleanEvict.mshrMissRate::total          inf                       # mshr miss rate for CleanEvict accesses (Ratio)
system.l2cache.ReadExReq.hits::cpu.data        135254                       # number of ReadExReq hits (Count)
system.l2cache.ReadExReq.hits::total           135254                       # number of ReadExReq hits (Count)
system.l2cache.ReadExReq.misses::cpu.data       543326                       # number of ReadExReq misses (Count)
system.l2cache.ReadExReq.misses::total         543326                       # number of ReadExReq misses (Count)
system.l2cache.ReadExReq.missLatency::cpu.data  53327046000                       # number of ReadExReq miss ticks (Tick)
system.l2cache.ReadExReq.missLatency::total  53327046000                       # number of ReadExReq miss ticks (Tick)
system.l2cache.ReadExReq.accesses::cpu.data       678580                       # number of ReadExReq accesses(hits+misses) (Count)
system.l2cache.ReadExReq.accesses::total       678580                       # number of ReadExReq accesses(hits+misses) (Count)
system.l2cache.ReadExReq.missRate::cpu.data     0.800681                       # miss rate for ReadExReq accesses (Ratio)
system.l2cache.ReadExReq.missRate::total     0.800681                       # miss rate for ReadExReq accesses (Ratio)
system.l2cache.ReadExReq.avgMissLatency::cpu.data 98149.262137                       # average ReadExReq miss latency ((Tick/Count))
system.l2cache.ReadExReq.avgMissLatency::total 98149.262137                       # average ReadExReq miss latency ((Tick/Count))
system.l2cache.ReadExReq.mshrMisses::cpu.data       543326                       # number of ReadExReq MSHR misses (Count)
system.l2cache.ReadExReq.mshrMisses::total       543326                       # number of ReadExReq MSHR misses (Count)
system.l2cache.ReadExReq.mshrMissLatency::cpu.data  42460526000                       # number of ReadExReq MSHR miss ticks (Tick)
system.l2cache.ReadExReq.mshrMissLatency::total  42460526000                       # number of ReadExReq MSHR miss ticks (Tick)
system.l2cache.ReadExReq.mshrMissRate::cpu.data     0.800681                       # mshr miss rate for ReadExReq accesses (Ratio)
system.l2cache.ReadExReq.mshrMissRate::total     0.800681                       # mshr miss rate for ReadExReq accesses (Ratio)
system.l2cache.ReadExReq.avgMshrMissLatency::cpu.data 78149.262137                       # average ReadExReq mshr miss latency ((Tick/Count))
system.l2cache.ReadExReq.avgMshrMissLatency::total 78149.262137                       # average ReadExReq mshr miss latency ((Tick/Count))
system.l2cache.ReadSharedReq.hits::cpu.inst         1814                       # number of ReadSharedReq hits (Count)
system.l2cache.ReadSharedReq.hits::cpu.data         5705                       # number of ReadSharedReq hits (Count)
system.l2cache.ReadSharedReq.hits::total         7519                       # number of ReadSharedReq hits (Count)
system.l2cache.ReadSharedReq.misses::cpu.inst         1874                       # number of ReadSharedReq misses (Count)
system.l2cache.ReadSharedReq.misses::cpu.data        12082                       # number of ReadSharedReq misses (Count)
system.l2cache.ReadSharedReq.misses::total        13956                       # number of ReadSharedReq misses (Count)
system.l2cache.ReadSharedReq.missLatency::cpu.inst    186653000                       # number of ReadSharedReq miss ticks (Tick)
system.l2cache.ReadSharedReq.missLatency::cpu.data   1265019000                       # number of ReadSharedReq miss ticks (Tick)
system.l2cache.ReadSharedReq.missLatency::total   1451672000                       # number of ReadSharedReq miss ticks (Tick)
system.l2cache.ReadSharedReq.accesses::cpu.inst         3688                       # number of ReadSharedReq accesses(hits+misses) (Count)
system.l2cache.ReadSharedReq.accesses::cpu.data        17787                       # number of ReadSharedReq accesses(hits+misses) (Count)
system.l2cache.ReadSharedReq.accesses::total        21475                       # number of ReadSharedReq accesses(hits+misses) (Count)
system.l2cache.ReadSharedReq.missRate::cpu.inst     0.508134                       # miss rate for ReadSharedReq accesses (Ratio)
system.l2cache.ReadSharedReq.missRate::cpu.data     0.679260                       # miss rate for ReadSharedReq accesses (Ratio)
system.l2cache.ReadSharedReq.missRate::total     0.649872                       # miss rate for ReadSharedReq accesses (Ratio)
system.l2cache.ReadSharedReq.avgMissLatency::cpu.inst 99601.387407                       # average ReadSharedReq miss latency ((Tick/Count))
system.l2cache.ReadSharedReq.avgMissLatency::cpu.data 104702.780997                       # average ReadSharedReq miss latency ((Tick/Count))
system.l2cache.ReadSharedReq.avgMissLatency::total 104017.770135                       # average ReadSharedReq miss latency ((Tick/Count))
system.l2cache.ReadSharedReq.mshrMisses::cpu.inst         1874                       # number of ReadSharedReq MSHR misses (Count)
system.l2cache.ReadSharedReq.mshrMisses::cpu.data        12082                       # number of ReadSharedReq MSHR misses (Count)
system.l2cache.ReadSharedReq.mshrMisses::total        13956                       # number of ReadSharedReq MSHR misses (Count)
system.l2cache.ReadSharedReq.mshrMissLatency::cpu.inst    149173000                       # number of ReadSharedReq MSHR miss ticks (Tick)
system.l2cache.ReadSharedReq.mshrMissLatency::cpu.data   1023379000                       # number of ReadSharedReq MSHR miss ticks (Tick)
system.l2cache.ReadSharedReq.mshrMissLatency::total   1172552000                       # number of ReadSharedReq MSHR miss ticks (Tick)
system.l2cache.ReadSharedReq.mshrMissRate::cpu.inst     0.508134                       # mshr miss rate for ReadSharedReq accesses (Ratio)
system.l2cache.ReadSharedReq.mshrMissRate::cpu.data     0.679260                       # mshr miss rate for ReadSharedReq accesses (Ratio)
system.l2cache.ReadSharedReq.mshrMissRate::total     0.649872                       # mshr miss rate for ReadSharedReq accesses (Ratio)
system.l2cache.ReadSharedReq.avgMshrMissLatency::cpu.inst 79601.387407                       # average ReadSharedReq mshr miss latency ((Tick/Count))
system.l2cache.ReadSharedReq.avgMshrMissLatency::cpu.data 84702.780997                       # average ReadSharedReq mshr miss latency ((Tick/Count))
system.l2cache.ReadSharedReq.avgMshrMissLatency::total 84017.770135                       # average ReadSharedReq mshr miss latency ((Tick/Count))
system.l2cache.WritebackDirty.hits::writebacks       681275                       # number of WritebackDirty hits (Count)
system.l2cache.WritebackDirty.hits::total       681275                       # number of WritebackDirty hits (Count)
system.l2cache.WritebackDirty.accesses::writebacks       681275                       # number of WritebackDirty accesses(hits+misses) (Count)
system.l2cache.WritebackDirty.accesses::total       681275                       # number of WritebackDirty accesses(hits+misses) (Count)
system.l2cache.power_state.pwrStateResidencyTicks::UNDEFINED 151661831000                       # Cumulative time (in ticks) in various power states (Tick)
system.l2cache.tags.tagsInUse             3952.237672                       # Average ticks per tags in use ((Tick/Count))
system.l2cache.tags.totalRefs                 1390130                       # Total number of references to valid blocks. (Count)
system.l2cache.tags.sampledRefs               1081098                       # Sample count of references to valid blocks. (Count)
system.l2cache.tags.avgRefs                  1.285850                       # Average number of references to valid blocks. ((Count/Count))
system.l2cache.tags.warmupTick                  86000                       # The tick when the warmup percentage was hit. (Tick)
system.l2cache.tags.occupancies::writebacks  3152.348122                       # Average occupied blocks per tick, per requestor ((Count/Tick))
system.l2cache.tags.occupancies::cpu.inst    27.584108                       # Average occupied blocks per tick, per requestor ((Count/Tick))
system.l2cache.tags.occupancies::cpu.data   772.305442                       # Average occupied blocks per tick, per requestor ((Count/Tick))
system.l2cache.tags.avgOccs::writebacks      0.769616                       # Average percentage of cache occupancy ((Ratio/Tick))
system.l2cache.tags.avgOccs::cpu.inst        0.006734                       # Average percentage of cache occupancy ((Ratio/Tick))
system.l2cache.tags.avgOccs::cpu.data        0.188551                       # Average percentage of cache occupancy ((Ratio/Tick))
system.l2cache.tags.avgOccs::total           0.964902                       # Average percentage of cache occupancy ((Ratio/Tick))
system.l2cache.tags.occupanciesTaskId::1024         4096                       # Occupied blocks per task id (Count)
system.l2cache.tags.ageTaskId_1024::0              59                       # Occupied blocks per task id, per block age (Count)
system.l2cache.tags.ageTaskId_1024::1             284                       # Occupied blocks per task id, per block age (Count)
system.l2cache.tags.ageTaskId_1024::2             765                       # Occupied blocks per task id, per block age (Count)
system.l2cache.tags.ageTaskId_1024::3            2984                       # Occupied blocks per task id, per block age (Count)
system.l2cache.tags.ageTaskId_1024::4               4                       # Occupied blocks per task id, per block age (Count)
system.l2cache.tags.ratioOccsTaskId::1024            1                       # Ratio of occupied blocks and all blocks, per task id (Ratio)
system.l2cache.tags.tagAccesses              12270786                       # Number of tag accesses (Count)
system.l2cache.tags.dataAccesses             12270786                       # Number of data accesses (Count)
system.l2cache.tags.power_state.pwrStateResidencyTicks::UNDEFINED 151661831000                       # Cumulative time (in ticks) in various power states (Tick)
system.mem_ctrl.avgPriority_writebacks::samples    539328.00                       # Average QoS priority value for accepted requests (Count)
system.mem_ctrl.avgPriority_cpu.inst::samples      1874.00                       # Average QoS priority value for accepted requests (Count)
system.mem_ctrl.avgPriority_cpu.data::samples    555288.00                       # Average QoS priority value for accepted requests (Count)
system.mem_ctrl.priorityMinLatency       0.000000018750                       # per QoS priority minimum request to response latency (Second)
system.mem_ctrl.priorityMaxLatency       0.002996766500                       # per QoS priority maximum request to response latency (Second)
system.mem_ctrl.numReadWriteTurnArounds         30762                       # Number of turnarounds from READ to WRITE (Count)
system.mem_ctrl.numWriteReadTurnArounds         30762                       # Number of turnarounds from WRITE to READ (Count)
system.mem_ctrl.numStayReadState              1673707                       # Number of times bus staying in READ state (Count)
system.mem_ctrl.numStayWriteState              509570                       # Number of times bus staying in WRITE state (Count)
system.mem_ctrl.readReqs                       557282                       # Number of read requests accepted (Count)
system.mem_ctrl.writeReqs                      539333                       # Number of write requests accepted (Count)
system.mem_ctrl.readBursts                     557282                       # Number of controller read bursts, including those serviced by the write queue (Count)
system.mem_ctrl.writeBursts                    539333                       # Number of controller write bursts, including those merged in the write queue (Count)
system.mem_ctrl.servicedByWrQ                     120                       # Number of controller read bursts serviced by the write queue (Count)
system.mem_ctrl.mergedWrBursts                      5                       # Number of controller write bursts merged with an existing one (Count)
system.mem_ctrl.neitherReadNorWriteReqs             0                       # Number of requests that are neither read nor write (Count)
system.mem_ctrl.avgRdQLen                        1.00                       # Average read queue length when enqueuing ((Count/Tick))
system.mem_ctrl.avgWrQLen                       24.71                       # Average write queue length when enqueuing ((Count/Tick))
system.mem_ctrl.numRdRetry                          0                       # Number of times read queue was full causing retry (Count)
system.mem_ctrl.numWrRetry                          0                       # Number of times write queue was full causing retry (Count)
system.mem_ctrl.readPktSize::0                      0                       # Read request sizes (log2) (Count)
system.mem_ctrl.readPktSize::1                      0                       # Read request sizes (log2) (Count)
system.mem_ctrl.readPktSize::2                      0                       # Read request sizes (log2) (Count)
system.mem_ctrl.readPktSize::3                      0                       # Read request sizes (log2) (Count)
system.mem_ctrl.readPktSize::4                      0                       # Read request sizes (log2) (Count)
system.mem_ctrl.readPktSize::5                      0                       # Read request sizes (log2) (Count)
system.mem_ctrl.readPktSize::6                 557282                       # Read request sizes (log2) (Count)
system.mem_ctrl.writePktSize::0                     0                       # Write request sizes (log2) (Count)
system.mem_ctrl.writePktSize::1                     0                       # Write request sizes (log2) (Count)
system.mem_ctrl.writePktSize::2                     0                       # Write request sizes (log2) (Count)
system.mem_ctrl.writePktSize::3                     0                       # Write request sizes (log2) (Count)
system.mem_ctrl.writePktSize::4                     0                       # Write request sizes (log2) (Count)
system.mem_ctrl.writePktSize::5                     0                       # Write request sizes (log2) (Count)
system.mem_ctrl.writePktSize::6                539333                       # Write request sizes (log2) (Count)
system.mem_ctrl.rdQLenPdf::0                   557162                       # What read queue length does an incoming req see (Count)
system.mem_ctrl.rdQLenPdf::1                        0                       # What read queue length does an incoming req see (Count)
system.mem_ctrl.rdQLenPdf::2                        0                       # What read queue length does an incoming req see (Count)
system.mem_ctrl.rdQLenPdf::3                        0                       # What read queue length does an incoming req see (Count)
system.mem_ctrl.rdQLenPdf::4                        0                       # What read queue length does an incoming req see (Count)
system.mem_ctrl.rdQLenPdf::5                        0                       # What read queue length does an incoming req see (Count)
system.mem_ctrl.rdQLenPdf::6                        0                       # What read queue length does an incoming req see (Count)
system.mem_ctrl.rdQLenPdf::7                        0                       # What read queue length does an incoming req see (Count)
system.mem_ctrl.rdQLenPdf::8                        0                       # What read queue length does an incoming req see (Count)
system.mem_ctrl.rdQLenPdf::9                        0                       # What read queue length does an incoming req see (Count)
system.mem_ctrl.rdQLenPdf::10                       0                       # What read queue length does an incoming req see (Count)
system.mem_ctrl.rdQLenPdf::11                       0                       # What read queue length does an incoming req see (Count)
system.mem_ctrl.rdQLenPdf::12                       0                       # What read queue length does an incoming req see (Count)
system.mem_ctrl.rdQLenPdf::13                       0                       # What read queue length does an incoming req see (Count)
system.mem_ctrl.rdQLenPdf::14                       0                       # What read queue length does an incoming req see (Count)
system.mem_ctrl.rdQLenPdf::15                       0                       # What read queue length does an incoming req see (Count)
system.mem_ctrl.rdQLenPdf::16                       0                       # What read queue length does an incoming req see (Count)
system.mem_ctrl.rdQLenPdf::17                       0                       # What read queue length does an incoming req see (Count)
system.mem_ctrl.rdQLenPdf::18                       0                       # What read queue length does an incoming req see (Count)
system.mem_ctrl.rdQLenPdf::19                       0                       # What read queue length does an incoming req see (Count)
system.mem_ctrl.rdQLenPdf::20                       0                       # What read queue length does an incoming req see (Count)
system.mem_ctrl.rdQLenPdf::21                       0                       # What read queue length does an incoming req see (Count)
system.mem_ctrl.rdQLenPdf::22                       0                       # What read queue length does an incoming req see (Count)
system.mem_ctrl.rdQLenPdf::23                       0                       # What read queue length does an incoming req see (Count)
system.mem_ctrl.rdQLenPdf::24                       0                       # What read queue length does an incoming req see (Count)
system.mem_ctrl.rdQLenPdf::25                       0                       # What read queue length does an incoming req see (Count)
system.mem_ctrl.rdQLenPdf::26                       0                       # What read queue length does an incoming req see (Count)
system.mem_ctrl.rdQLenPdf::27                       0                       # What read queue length does an incoming req see (Count)
system.mem_ctrl.rdQLenPdf::28                       0                       # What read queue length does an incoming req see (Count)
system.mem_ctrl.rdQLenPdf::29                       0                       # What read queue length does an incoming req see (Count)
system.mem_ctrl.rdQLenPdf::30                       0                       # What read queue length does an incoming req see (Count)
system.mem_ctrl.rdQLenPdf::31                       0                       # What read queue length does an incoming req see (Count)
system.mem_ctrl.wrQLenPdf::0                        1                       # What write queue length does an incoming req see (Count)
system.mem_ctrl.wrQLenPdf::1                        1                       # What write queue length does an incoming req see (Count)
system.mem_ctrl.wrQLenPdf::2                        1                       # What write queue length does an incoming req see (Count)
system.mem_ctrl.wrQLenPdf::3                        1                       # What write queue length does an incoming req see (Count)
system.mem_ctrl.wrQLenPdf::4                        1                       # What write queue length does an incoming req see (Count)
system.mem_ctrl.wrQLenPdf::5                        1                       # What write queue length does an incoming req see (Count)
system.mem_ctrl.wrQLenPdf::6                        1                       # What write queue length does an incoming req see (Count)
system.mem_ctrl.wrQLenPdf::7                        1                       # What write queue length does an incoming req see (Count)
system.mem_ctrl.wrQLenPdf::8                        1                       # What write queue length does an incoming req see (Count)
system.mem_ctrl.wrQLenPdf::9                        1                       # What write queue length does an incoming req see (Count)
system.mem_ctrl.wrQLenPdf::10                       1                       # What write queue length does an incoming req see (Count)
system.mem_ctrl.wrQLenPdf::11                       1                       # What write queue length does an incoming req see (Count)
system.mem_ctrl.wrQLenPdf::12                       1                       # What write queue length does an incoming req see (Count)
system.mem_ctrl.wrQLenPdf::13                       1                       # What write queue length does an incoming req see (Count)
system.mem_ctrl.wrQLenPdf::14                       1                       # What write queue length does an incoming req see (Count)
system.mem_ctrl.wrQLenPdf::15                   19161                       # What write queue length does an incoming req see (Count)
system.mem_ctrl.wrQLenPdf::16                   26598                       # What write queue length does an incoming req see (Count)
system.mem_ctrl.wrQLenPdf::17                   31358                       # What write queue length does an incoming req see (Count)
system.mem_ctrl.wrQLenPdf::18                   30879                       # What write queue length does an incoming req see (Count)
system.mem_ctrl.wrQLenPdf::19                   30828                       # What write queue length does an incoming req see (Count)
system.mem_ctrl.wrQLenPdf::20                   30837                       # What write queue length does an incoming req see (Count)
system.mem_ctrl.wrQLenPdf::21                   30810                       # What write queue length does an incoming req see (Count)
system.mem_ctrl.wrQLenPdf::22                   30816                       # What write queue length does an incoming req see (Count)
system.mem_ctrl.wrQLenPdf::23                   30832                       # What write queue length does an incoming req see (Count)
system.mem_ctrl.wrQLenPdf::24                   30799                       # What write queue length does an incoming req see (Count)
system.mem_ctrl.wrQLenPdf::25                   30872                       # What write queue length does an incoming req see (Count)
system.mem_ctrl.wrQLenPdf::26                   30774                       # What write queue length does an incoming req see (Count)
system.mem_ctrl.wrQLenPdf::27                   30773                       # What write queue length does an incoming req see (Count)
system.mem_ctrl.wrQLenPdf::28                   30771                       # What write queue length does an incoming req see (Count)
system.mem_ctrl.wrQLenPdf::29                   30770                       # What write queue length does an incoming req see (Count)
system.mem_ctrl.wrQLenPdf::30                   30768                       # What write queue length does an incoming req see (Count)
system.mem_ctrl.wrQLenPdf::31                   30770                       # What write queue length does an incoming req see (Count)
system.mem_ctrl.wrQLenPdf::32                   30765                       # What write queue length does an incoming req see (Count)
system.mem_ctrl.wrQLenPdf::33                      85                       # What write queue length does an incoming req see (Count)
system.mem_ctrl.wrQLenPdf::34                      32                       # What write queue length does an incoming req see (Count)
system.mem_ctrl.wrQLenPdf::35                      14                       # What write queue length does an incoming req see (Count)
system.mem_ctrl.wrQLenPdf::36                       1                       # What write queue length does an incoming req see (Count)
system.mem_ctrl.wrQLenPdf::37                       0                       # What write queue length does an incoming req see (Count)
system.mem_ctrl.wrQLenPdf::38                       0                       # What write queue length does an incoming req see (Count)
system.mem_ctrl.wrQLenPdf::39                       0                       # What write queue length does an incoming req see (Count)
system.mem_ctrl.wrQLenPdf::40                       0                       # What write queue length does an incoming req see (Count)
system.mem_ctrl.wrQLenPdf::41                       0                       # What write queue length does an incoming req see (Count)
system.mem_ctrl.wrQLenPdf::42                       0                       # What write queue length does an incoming req see (Count)
[...]
system.mem_ctrl.dram.bytesWritten::total     34517312                       # Number of bytes written to this memory (Byte)
system.mem_ctrl.dram.numReads::cpu.inst          1874                       # Number of read requests responded to by this memory (Count)
system.mem_ctrl.dram.numReads::cpu.data        555408                       # Number of read requests responded to by this memory (Count)
system.mem_ctrl.dram.numReads::total           557282                       # Number of read requests responded to by this memory (Count)
system.mem_ctrl.dram.numWrites::writebacks       539333                       # Number of write requests responded to by this memory (Count)
system.mem_ctrl.dram.numWrites::total          539333                       # Number of write requests responded to by this memory (Count)
system.mem_ctrl.dram.bwRead::cpu.inst          790812                       # Total read bandwidth from this memory ((Byte/Second))
system.mem_ctrl.dram.bwRead::cpu.data       234377442                       # Total read bandwidth from this memory ((Byte/Second))
system.mem_ctrl.dram.bwRead::total          235168254                       # Total read bandwidth from this memory ((Byte/Second))
system.mem_ctrl.dram.bwInstRead::cpu.inst       790812                       # Instruction read bandwidth from this memory ((Byte/Second))
system.mem_ctrl.dram.bwInstRead::total         790812                       # Instruction read bandwidth from this memory ((Byte/Second))
system.mem_ctrl.dram.bwWrite::writebacks    227593929                       # Write bandwidth from this memory ((Byte/Second))
system.mem_ctrl.dram.bwWrite::total         227593929                       # Write bandwidth from this memory ((Byte/Second))
system.mem_ctrl.dram.bwTotal::writebacks    227593929                       # Total bandwidth to/from this memory ((Byte/Second))
system.mem_ctrl.dram.bwTotal::cpu.inst         790812                       # Total bandwidth to/from this memory ((Byte/Second))
system.mem_ctrl.dram.bwTotal::cpu.data      234377442                       # Total bandwidth to/from this memory ((Byte/Second))
system.mem_ctrl.dram.bwTotal::total         462762183                       # Total bandwidth to/from this memory ((Byte/Second))
system.mem_ctrl.dram.readBursts                557162                       # Number of DRAM read bursts (Count)
system.mem_ctrl.dram.writeBursts               539296                       # Number of DRAM write bursts (Count)
system.mem_ctrl.dram.perBankRdBursts::0         37077                       # Per bank write bursts (Count)
system.mem_ctrl.dram.perBankRdBursts::1         36071                       # Per bank write bursts (Count)
system.mem_ctrl.dram.perBankRdBursts::2         35537                       # Per bank write bursts (Count)
system.mem_ctrl.dram.perBankRdBursts::3         35745                       # Per bank write bursts (Count)
system.mem_ctrl.dram.perBankRdBursts::4         33729                       # Per bank write bursts (Count)
system.mem_ctrl.dram.perBankRdBursts::5         30824                       # Per bank write bursts (Count)
system.mem_ctrl.dram.perBankRdBursts::6         31884                       # Per bank write bursts (Count)
system.mem_ctrl.dram.perBankRdBursts::7         32335                       # Per bank write bursts (Count)
system.mem_ctrl.dram.perBankRdBursts::8         32009                       # Per bank write bursts (Count)
system.mem_ctrl.dram.perBankRdBursts::9         33933                       # Per bank write bursts (Count)
system.mem_ctrl.dram.perBankRdBursts::10        33257                       # Per bank write bursts (Count)
system.mem_ctrl.dram.perBankRdBursts::11        35859                       # Per bank write bursts (Count)
system.mem_ctrl.dram.perBankRdBursts::12        36355                       # Per bank write bursts (Count)
system.mem_ctrl.dram.perBankRdBursts::13        37278                       # Per bank write bursts (Count)
system.mem_ctrl.dram.perBankRdBursts::14        37834                       # Per bank write bursts (Count)
system.mem_ctrl.dram.perBankRdBursts::15        37435                       # Per bank write bursts (Count)
system.mem_ctrl.dram.perBankWrBursts::0         35708                       # Per bank write bursts (Count)
system.mem_ctrl.dram.perBankWrBursts::1         35172                       # Per bank write bursts (Count)
system.mem_ctrl.dram.perBankWrBursts::2         34585                       # Per bank write bursts (Count)
system.mem_ctrl.dram.perBankWrBursts::3         34734                       # Per bank write bursts (Count)
system.mem_ctrl.dram.perBankWrBursts::4         32698                       # Per bank write bursts (Count)
system.mem_ctrl.dram.perBankWrBursts::5         29708                       # Per bank write bursts (Count)
system.mem_ctrl.dram.perBankWrBursts::6         30915                       # Per bank write bursts (Count)
system.mem_ctrl.dram.perBankWrBursts::7         31399                       # Per bank write bursts (Count)
system.mem_ctrl.dram.perBankWrBursts::8         31096                       # Per bank write bursts (Count)
system.mem_ctrl.dram.perBankWrBursts::9         32397                       # Per bank write bursts (Count)
system.mem_ctrl.dram.perBankWrBursts::10        31727                       # Per bank write bursts (Count)
system.mem_ctrl.dram.perBankWrBursts::11        34873                       # Per bank write bursts (Count)
system.mem_ctrl.dram.perBankWrBursts::12        35532                       # Per bank write bursts (Count)
system.mem_ctrl.dram.perBankWrBursts::13        36168                       # Per bank write bursts (Count)
system.mem_ctrl.dram.perBankWrBursts::14        36224                       # Per bank write bursts (Count)
system.mem_ctrl.dram.perBankWrBursts::15        36360                       # Per bank write bursts (Count)
system.mem_ctrl.dram.totQLat               4609223250                       # Total ticks spent queuing (Tick)
system.mem_ctrl.dram.totBusLat             2785810000                       # Total ticks spent in databus transfers (Tick)
system.mem_ctrl.dram.totMemAccLat         15056010750                       # Total ticks spent from burst creation until serviced by the DRAM (Tick)
system.mem_ctrl.dram.avgQLat                  8272.68                       # Average queueing delay per DRAM burst ((Tick/Count))
system.mem_ctrl.dram.avgBusLat                5000.00                       # Average bus latency per DRAM burst ((Tick/Count))
system.mem_ctrl.dram.avgMemAccLat            27022.68                       # Average memory access latency per DRAM burst ((Tick/Count))
system.mem_ctrl.dram.readRowHits               494411                       # Number of row buffer hits during reads (Count)
system.mem_ctrl.dram.writeRowHits              445449                       # Number of row buffer hits during writes (Count)
system.mem_ctrl.dram.readRowHitRate             88.74                       # Row buffer hit rate for reads (Ratio)
system.mem_ctrl.dram.writeRowHitRate            82.60                       # Row buffer hit rate for writes (Ratio)
system.mem_ctrl.dram.bytesPerActivate::samples       156596                       # Bytes accessed per row activation (Byte)
system.mem_ctrl.dram.bytesPerActivate::mean   448.114026                       # Bytes accessed per row activation (Byte)
system.mem_ctrl.dram.bytesPerActivate::gmean   278.189549                       # Bytes accessed per row activation (Byte)
system.mem_ctrl.dram.bytesPerActivate::stdev   378.147416                       # Bytes accessed per row activation (Byte)
system.mem_ctrl.dram.bytesPerActivate::0-127        36010     23.00%     23.00% # Bytes accessed per row activation (Byte)
system.mem_ctrl.dram.bytesPerActivate::128-255        32031     20.45%     43.45% # Bytes accessed per row activation (Byte)
system.mem_ctrl.dram.bytesPerActivate::256-383        16332     10.43%     53.88% # Bytes accessed per row activation (Byte)
system.mem_ctrl.dram.bytesPerActivate::384-511        11799      7.53%     61.41% # Bytes accessed per row activation (Byte)
system.mem_ctrl.dram.bytesPerActivate::512-639         8969      5.73%     67.14% # Bytes accessed per row activation (Byte)
system.mem_ctrl.dram.bytesPerActivate::640-767         6386      4.08%     71.22% # Bytes accessed per row activation (Byte)
system.mem_ctrl.dram.bytesPerActivate::768-895         5590      3.57%     74.79% # Bytes accessed per row activation (Byte)
system.mem_ctrl.dram.bytesPerActivate::896-1023         4654      2.97%     77.76% # Bytes accessed per row activation (Byte)
system.mem_ctrl.dram.bytesPerActivate::1024-1151        34825     22.24%    100.00% # Bytes accessed per row activation (Byte)
system.mem_ctrl.dram.bytesPerActivate::total       156596                       # Bytes accessed per row activation (Byte)
system.mem_ctrl.dram.bytesRead               35658368                       # Total bytes read (Byte)
system.mem_ctrl.dram.bytesWritten            34514944                       # Total bytes written (Byte)
system.mem_ctrl.dram.avgRdBW               235.117615                       # Average DRAM read bandwidth in MiBytes/s ((Byte/Second))
system.mem_ctrl.dram.avgWrBW               227.578315                       # Average DRAM write bandwidth in MiBytes/s ((Byte/Second))
system.mem_ctrl.dram.peakBW                  12800.00                       # Theoretical peak bandwidth in MiByte/s ((Byte/Second))
system.mem_ctrl.dram.busUtil                     3.61                       # Data bus utilization in percentage (Ratio)
system.mem_ctrl.dram.busUtilRead                 1.84                       # Data bus utilization in percentage for reads (Ratio)
system.mem_ctrl.dram.busUtilWrite                1.78                       # Data bus utilization in percentage for writes (Ratio)
system.mem_ctrl.dram.pageHitRate                85.72                       # Row buffer hit rate, read and write combined (Ratio)
system.mem_ctrl.dram.power_state.pwrStateResidencyTicks::UNDEFINED 151661831000                       # Cumulative time (in ticks) in various power states (Tick)
system.mem_ctrl.dram.rank0.actEnergy        550279800                       # Energy for activate commands per rank (pJ) (Joule)
system.mem_ctrl.dram.rank0.preEnergy        292480650                       # Energy for precharge commands per rank (pJ) (Joule)
system.mem_ctrl.dram.rank0.readEnergy      1950662280                       # Energy for read commands per rank (pJ) (Joule)
system.mem_ctrl.dram.rank0.writeEnergy     1382877180                       # Energy for write commands per rank (pJ) (Joule)
system.mem_ctrl.dram.rank0.refreshEnergy 11971957920.000002                       # Energy for refresh commands per rank (pJ) (Joule)
system.mem_ctrl.dram.rank0.actBackEnergy  48218207790                       # Energy for active background per rank (pJ) (Joule)
system.mem_ctrl.dram.rank0.preBackEnergy  17633336640                       # Energy for precharge background per rank (pJ) (Joule)
system.mem_ctrl.dram.rank0.actPowerDownEnergy            0                       # Energy for active power-down per rank (pJ) (Joule)
system.mem_ctrl.dram.rank0.prePowerDownEnergy            0                       # Energy for precharge power-down per rank (pJ) (Joule)
system.mem_ctrl.dram.rank0.selfRefreshEnergy            0                       # Energy for self refresh per rank (pJ) (Joule)
system.mem_ctrl.dram.rank0.totalEnergy    81999802260                       # Total energy per rank (pJ) (Joule)
system.mem_ctrl.dram.rank0.averagePower    540.675276                       # Core power per rank (mW) (Watt)
system.mem_ctrl.dram.rank0.totalIdleTime            0                       # Total Idle time Per DRAM Rank (Tick)
system.mem_ctrl.dram.rank0.pwrStateTime::IDLE  45298509750                       # Time in different power states (Tick)
system.mem_ctrl.dram.rank0.pwrStateTime::REF   5064280000                       # Time in different power states (Tick)
system.mem_ctrl.dram.rank0.pwrStateTime::SREF            0                       # Time in different power states (Tick)
system.mem_ctrl.dram.rank0.pwrStateTime::PRE_PDN            0                       # Time in different power states (Tick)
system.mem_ctrl.dram.rank0.pwrStateTime::ACT 101299041250                       # Time in different power states (Tick)
system.mem_ctrl.dram.rank0.pwrStateTime::ACT_PDN            0                       # Time in different power states (Tick)
system.mem_ctrl.dram.rank1.actEnergy        567829920                       # Energy for activate commands per rank (pJ) (Joule)
system.mem_ctrl.dram.rank1.preEnergy        301801170                       # Energy for precharge commands per rank (pJ) (Joule)
system.mem_ctrl.dram.rank1.readEnergy      2027474400                       # Energy for read commands per rank (pJ) (Joule)
system.mem_ctrl.dram.rank1.writeEnergy     1432247940                       # Energy for write commands per rank (pJ) (Joule)
system.mem_ctrl.dram.rank1.refreshEnergy 11971957920.000002                       # Energy for refresh commands per rank (pJ) (Joule)
system.mem_ctrl.dram.rank1.actBackEnergy  49600473180                       # Energy for active background per rank (pJ) (Joule)
system.mem_ctrl.dram.rank1.preBackEnergy  16469323680                       # Energy for precharge background per rank (pJ) (Joule)
system.mem_ctrl.dram.rank1.actPowerDownEnergy            0                       # Energy for active power-down per rank (pJ) (Joule)
system.mem_ctrl.dram.rank1.prePowerDownEnergy            0                       # Energy for precharge power-down per rank (pJ) (Joule)
system.mem_ctrl.dram.rank1.selfRefreshEnergy            0                       # Energy for self refresh per rank (pJ) (Joule)
system.mem_ctrl.dram.rank1.totalEnergy    82371108210                       # Total energy per rank (pJ) (Joule)
system.mem_ctrl.dram.rank1.averagePower    543.123525                       # Core power per rank (mW) (Watt)
system.mem_ctrl.dram.rank1.totalIdleTime            0                       # Total Idle time Per DRAM Rank (Tick)
system.mem_ctrl.dram.rank1.pwrStateTime::IDLE  42258342250                       # Time in different power states (Tick)
system.mem_ctrl.dram.rank1.pwrStateTime::REF   5064280000                       # Time in different power states (Tick)
system.mem_ctrl.dram.rank1.pwrStateTime::SREF            0                       # Time in different power states (Tick)
system.mem_ctrl.dram.rank1.pwrStateTime::PRE_PDN            0                       # Time in different power states (Tick)
system.mem_ctrl.dram.rank1.pwrStateTime::ACT 104339208750                       # Time in different power states (Tick)
system.mem_ctrl.dram.rank1.pwrStateTime::ACT_PDN            0                       # Time in different power states (Tick)
system.mem_ctrl.power_state.pwrStateResidencyTicks::UNDEFINED 151661831000                       # Cumulative time (in ticks) in various power states (Tick)
system.membus.transDist::ReadResp               13956                       # Transaction distribution (Count)
system.membus.transDist::WritebackDirty        539333                       # Transaction distribution (Count)
system.membus.transDist::CleanEvict             13023                       # Transaction distribution (Count)
system.membus.transDist::ReadExReq             543326                       # Transaction distribution (Count)
system.membus.transDist::ReadExResp            543326                       # Transaction distribution (Count)
system.membus.transDist::ReadSharedReq          13956                       # Transaction distribution (Count)
system.membus.pktCount_system.l2cache.mem_side_port::system.mem_ctrl.port      1666920                       # Packet count per connected requestor and responder (Count)
system.membus.pktCount_system.l2cache.mem_side_port::total      1666920                       # Packet count per connected requestor and responder (Count)
system.membus.pktCount::total                 1666920                       # Packet count per connected requestor and responder (Count)
system.membus.pktSize_system.l2cache.mem_side_port::system.mem_ctrl.port     70183360                       # Cumulative packet size per connected requestor and responder (Byte)
system.membus.pktSize_system.l2cache.mem_side_port::total     70183360                       # Cumulative packet size per connected requestor and responder (Byte)
system.membus.pktSize::total                 70183360                       # Cumulative packet size per connected requestor and responder (Byte)
system.membus.snoops                                0                       # Total snoops (Count)
system.membus.snoopTraffic                          0                       # Total snoop traffic (Byte)
system.membus.snoopFanout::samples             557282                       # Request fanout histogram (Count)
system.membus.snoopFanout::mean                     0                       # Request fanout histogram (Count)
system.membus.snoopFanout::stdev                    0                       # Request fanout histogram (Count)
system.membus.snoopFanout::underflows               0      0.00%      0.00% # Request fanout histogram (Count)
system.membus.snoopFanout::0                   557282    100.00%    100.00% # Request fanout histogram (Count)
system.membus.snoopFanout::1                        0      0.00%    100.00% # Request fanout histogram (Count)
system.membus.snoopFanout::overflows                0      0.00%    100.00% # Request fanout histogram (Count)
system.membus.snoopFanout::min_value                0                       # Request fanout histogram (Count)
system.membus.snoopFanout::max_value                0                       # Request fanout histogram (Count)
system.membus.snoopFanout::total               557282                       # Request fanout histogram (Count)
system.membus.power_state.pwrStateResidencyTicks::UNDEFINED 151661831000                       # Cumulative time (in ticks) in various power states (Tick)
system.membus.reqLayer2.occupancy          3266970000                       # Layer occupancy (ticks) (Tick)
system.membus.reqLayer2.utilization               0.0                       # Layer utilization (Ratio)
system.membus.respLayer0.occupancy         2943056250                       # Layer occupancy (ticks) (Tick)
system.membus.respLayer0.utilization              0.0                       # Layer utilization (Ratio)
system.membus.snoop_filter.totRequests        1109638                       # Total number of requests made to the snoop filter. (Count)
system.membus.snoop_filter.hitSingleRequests       552474                       # Number of requests hitting in the snoop filter with a single holder of the requested data. (Count)
system.membus.snoop_filter.hitMultiRequests            0                       # Number of requests hitting in the snoop filter with multiple (>1) holders of the requested data. (Count)
system.membus.snoop_filter.totSnoops                0                       # Total number of snoops made to the snoop filter. (Count)
system.membus.snoop_filter.hitSingleSnoops            0                       # Number of snoops hitting in the snoop filter with a single holder of the requested data. (Count)
system.membus.snoop_filter.hitMultiSnoops            0                       # Number of snoops hitting in the snoop filter with multiple (>1) holders of the requested data. (Count)
system.workload.inst.arm                            0                       # number of arm instructions executed (Count)
system.workload.inst.quiesce                        0                       # number of quiesce instructions executed (Count)

---------- End Simulation Statistics   ----------
